* SPICE3 file created from dvsd_8216m9.ext - technology: sky130A

.subckt dvsd_8216m9 A[0] A[1] A[2] A[3] A[4] A[5] A[6] A[7] B[0] B[1] B[2] B[3] B[4]
+ B[5] B[6] B[7] M[0] M[10] M[11] M[12] M[13] M[14] M[15] M[1] M[2] M[3] M[4] M[5]
+ M[6] M[7] M[8] M[9] VGND VPWR
C0 _567_/B _571_/a_250_297# 0.13fF
C1 _480_/Y _542_/A 0.16fF
C2 _375_/a_79_199# _375_/a_448_47# 0.13fF
C3 _566_/A _570_/B 0.03fF
C4 B[7] _574_/X 0.07fF
C5 _487_/a_78_199# _452_/X 0.13fF
C6 B[1] _584_/A 0.12fF
C7 _396_/X _392_/Y 0.11fF
C8 _542_/C _505_/a_80_21# 0.09fF
C9 _441_/a_78_199# _454_/X 0.12fF
C10 _548_/a_489_413# _546_/X 0.15fF
C11 _634_/a_27_413# _368_/A 0.09fF
C12 _508_/a_77_199# _508_/a_539_297# 0.06fF
C13 _316_/a_381_47# _316_/a_558_47# 0.32fF
C14 _322_/A VPWR 1.38fF
C15 _557_/B _558_/a_323_297# 0.13fF
C16 _626_/a_109_47# _626_/Y 0.50fF
C17 _543_/A _515_/A 0.21fF
C18 _358_/a_109_47# _485_/A 0.04fF
C19 _542_/C _443_/B 1.04fF
C20 _613_/X _589_/a_489_413# 0.13fF
C21 _611_/a_109_297# _611_/X 0.03fF
C22 _616_/A _530_/X 0.28fF
C23 _630_/X _363_/B 0.01fF
C24 B[0] _514_/B 0.28fF
C25 _583_/X _580_/B 0.50fF
C26 _516_/A _542_/A 0.03fF
C27 _539_/A _542_/A 0.85fF
C28 _569_/A _612_/Y 0.03fF
C29 _593_/A _598_/A 0.11fF
C30 _440_/X _460_/a_489_413# 0.07fF
C31 _587_/A A[6] 0.08fF
C32 _614_/a_489_413# VPWR 0.39fF
C33 _574_/X _574_/a_81_21# 0.24fF
C34 _340_/A _381_/B 0.16fF
C35 _469_/A _521_/X 0.94fF
C36 _352_/a_222_93# _314_/X 0.03fF
C37 _539_/a_150_297# _442_/A 0.01fF
C38 _556_/Y _582_/a_27_47# 0.01fF
C39 _627_/A _586_/a_505_21# 0.21fF
C40 _455_/X _389_/a_27_47# 0.10fF
C41 _458_/X _437_/X 0.15fF
C42 _557_/Y VPWR 2.31fF
C43 VPWR _483_/a_250_297# 0.74fF
C44 _602_/A VPWR 1.99fF
C45 B[7] _549_/a_76_199# 0.06fF
C46 _337_/a_150_297# _338_/X 0.02fF
C47 _457_/X VPWR 1.15fF
C48 _545_/Y _546_/a_489_413# 0.14fF
C49 _588_/A _381_/B 0.08fF
C50 _610_/A _621_/a_292_297# 0.02fF
C51 _433_/Y _540_/a_93_21# 0.05fF
C52 _419_/a_226_47# _419_/X 0.05fF
C53 _443_/A _441_/a_215_47# 0.01fF
C54 _448_/B _542_/D 1.35fF
C55 _551_/X _530_/X 1.43fF
C56 _413_/X _419_/a_226_47# 0.24fF
C57 _556_/Y _558_/a_323_297# 0.02fF
C58 _557_/A _558_/a_227_47# 0.02fF
C59 _467_/Y VPWR 3.46fF
C60 _620_/a_489_413# _619_/Y 0.14fF
C61 _627_/X _608_/X 0.09fF
C62 _433_/Y _621_/X 0.75fF
C63 _498_/Y _527_/Y 0.31fF
C64 _461_/a_493_297# VPWR 0.01fF
C65 _566_/A _381_/B 1.58fF
C66 _510_/A _387_/a_215_47# 0.16fF
C67 _491_/a_76_199# _491_/X 0.22fF
C68 _612_/Y _627_/D 0.35fF
C69 _627_/C _627_/a_27_297# 0.45fF
C70 _329_/a_76_199# _352_/a_448_47# 0.00fF
C71 _580_/B _580_/a_68_297# 0.43fF
C72 _446_/X _469_/X 0.03fF
C73 _544_/A _561_/A 1.41fF
C74 _586_/S _621_/X 0.00fF
C75 _458_/X _439_/a_76_199# 0.07fF
C76 _416_/a_215_47# _418_/A 0.15fF
C77 _417_/A _417_/a_27_47# 0.43fF
C78 _504_/a_77_199# _390_/B 0.01fF
C79 _453_/X _453_/a_93_21# 0.13fF
C80 _519_/A _519_/C 0.28fF
C81 _417_/D _480_/A 0.13fF
C82 _336_/a_215_47# _328_/A 0.11fF
C83 _495_/a_226_47# _497_/A 0.05fF
C84 _627_/X _627_/C 0.06fF
C85 input11/a_27_47# _485_/D 0.24fF
C86 B[7] _590_/a_150_297# 0.02fF
C87 _510_/A _393_/A 0.90fF
C88 _338_/a_544_297# _332_/X 0.04fF
C89 _595_/a_323_297# _566_/Y 0.03fF
C90 _540_/X _540_/a_93_21# 0.13fF
C91 _342_/X _352_/a_222_93# 0.13fF
C92 _412_/a_76_199# _408_/X 0.36fF
C93 _425_/a_76_199# _426_/B 0.22fF
C94 _500_/a_78_199# _497_/a_68_297# 0.00fF
C95 _547_/a_79_199# _547_/X 0.29fF
C96 _410_/B _485_/A 0.36fF
C97 _459_/X VPWR 0.76fF
C98 _563_/A _518_/X 0.03fF
C99 _581_/a_27_93# _581_/B 0.47fF
C100 _469_/a_62_47# _588_/A 0.14fF
C101 _361_/X _374_/X 0.34fF
C102 _432_/A _371_/A 0.35fF
C103 _577_/a_556_47# _390_/D 0.02fF
C104 _351_/A _351_/X 0.07fF
C105 _574_/X VPWR 3.69fF
C106 _503_/A VPWR 5.69fF
C107 _543_/A _469_/a_664_47# 0.01fF
C108 _467_/Y _501_/Y 1.34fF
C109 _417_/D _481_/A 0.02fF
C110 _428_/a_384_47# _427_/Y 0.01fF
C111 _578_/a_78_199# VPWR 0.61fF
C112 _623_/a_226_47# _433_/Y 0.11fF
C113 _386_/a_664_47# _515_/A 0.07fF
C114 _631_/Y _316_/a_381_47# 0.08fF
C115 _626_/Y _559_/X 0.03fF
C116 output21/a_27_47# _626_/a_109_47# 0.01fF
C117 _544_/a_664_47# _503_/A 0.01fF
C118 _615_/a_493_297# _593_/Y 0.08fF
C119 _417_/D _633_/Y 0.05fF
C120 _387_/a_493_297# _475_/A 0.02fF
C121 _347_/A _481_/A 0.05fF
C122 _548_/a_76_199# _548_/a_489_413# 0.12fF
C123 _613_/a_77_199# _590_/A 0.03fF
C124 _419_/a_76_199# _452_/A 0.10fF
C125 _359_/a_68_297# _383_/X 0.14fF
C126 _391_/A _420_/X 0.04fF
C127 _474_/A _473_/a_227_47# 0.04fF
C128 VPWR _606_/A 4.00fF
C129 M[0] _554_/A 0.09fF
C130 _599_/A _575_/X 0.01fF
C131 _416_/a_292_297# _561_/A 0.04fF
C132 _350_/a_109_297# _350_/C 0.08fF
C133 VPWR _609_/a_209_297# 0.45fF
C134 _357_/a_27_47# _509_/A 0.01fF
C135 _347_/A _633_/Y 0.08fF
C136 _337_/B _631_/B 0.40fF
C137 _634_/a_27_413# _370_/A 0.37fF
C138 _586_/S _586_/a_76_199# 0.65fF
C139 _340_/A _542_/A 0.12fF
C140 _603_/Y output17/a_27_47# 0.01fF
C141 VPWR _427_/A 2.16fF
C142 _504_/a_323_297# _471_/Y 0.05fF
C143 _433_/a_481_47# _432_/X 0.09fF
C144 output32/a_27_47# M[9] 0.44fF
C145 _498_/Y _531_/A 0.10fF
C146 _606_/Y _606_/A 1.10fF
C147 _468_/a_215_47# _436_/X 0.03fF
C148 _626_/Y _465_/X 0.03fF
C149 _485_/D _484_/a_78_199# 0.14fF
C150 _507_/Y _539_/X 0.23fF
C151 _588_/A _593_/A 0.36fF
C152 _590_/B _622_/C 0.26fF
C153 _610_/A _624_/a_489_47# 0.07fF
C154 _497_/A _494_/X 0.01fF
C155 _635_/a_27_413# _635_/a_300_297# 0.04fF
C156 _626_/Y _616_/B 0.85fF
C157 _331_/a_27_47# _351_/a_27_53# 0.01fF
C158 _474_/A _476_/a_250_297# 0.03fF
C159 _503_/A _559_/a_539_297# 0.08fF
C160 _456_/a_489_413# VPWR 0.39fF
C161 _549_/a_76_199# VPWR 0.50fF
C162 _390_/a_27_47# VPWR 0.80fF
C163 _453_/a_93_21# _542_/D 0.36fF
C164 _525_/a_226_47# _523_/X 0.29fF
C165 _424_/a_226_47# VPWR 0.16fF
C166 _359_/A _447_/B 0.15fF
C167 _566_/A _542_/A 0.35fF
C168 _587_/A _472_/Y 0.21fF
C169 _465_/X _467_/a_109_47# 0.20fF
C170 _568_/a_227_47# _433_/Y 0.07fF
C171 _444_/Y _390_/B 0.27fF
C172 _567_/B A[3] 0.05fF
C173 _351_/A _419_/X 0.11fF
C174 _563_/A _520_/X 0.28fF
C175 _542_/B _478_/a_27_47# 0.36fF
C176 _455_/X _631_/Y 0.30fF
C177 _423_/X _461_/X 0.02fF
C178 _591_/Y B[7] 0.11fF
C179 _516_/A _519_/X 0.12fF
C180 _382_/B _420_/X 0.06fF
C181 _559_/X _381_/B 0.03fF
C182 _602_/Y _554_/B 0.73fF
C183 _454_/a_76_199# _449_/A 0.02fF
C184 _631_/Y _509_/A 0.23fF
C185 _359_/A _376_/a_68_297# 0.03fF
C186 _471_/Y VPWR 2.30fF
C187 _326_/A _350_/C 0.48fF
C188 _330_/A _363_/A 0.03fF
C189 _627_/A _520_/X 0.37fF
C190 _427_/A _501_/Y 0.11fF
C191 _538_/Y _539_/X 0.55fF
C192 _544_/A VPWR 5.80fF
C193 _627_/A _590_/A 0.30fF
C194 _568_/a_227_297# _546_/X 0.03fF
C195 _355_/A _316_/a_381_47# 0.01fF
C196 _330_/A _420_/X 0.79fF
C197 _381_/C _520_/a_489_413# 0.09fF
C198 _485_/a_27_47# _485_/A 0.37fF
C199 _536_/Y _539_/A 0.01fF
C200 _510_/A _433_/Y 1.53fF
C201 _544_/A _544_/a_664_47# 0.07fF
C202 _381_/C _519_/A 0.15fF
C203 _474_/A _509_/Y 0.01fF
C204 B[2] _576_/X 0.53fF
C205 _390_/D _538_/A 0.50fF
C206 _487_/a_78_199# _447_/B 0.01fF
C207 _379_/a_78_199# _419_/a_76_199# 0.01fF
C208 _318_/a_27_47# _563_/A 0.04fF
C209 _440_/X _459_/a_556_47# 0.02fF
C210 _423_/X _407_/a_27_47# 0.00fF
C211 _589_/a_76_199# _590_/B 0.23fF
C212 _447_/B _367_/C 0.03fF
C213 _404_/a_558_47# _442_/D 0.10fF
C214 VPWR _446_/a_93_21# 0.36fF
C215 _584_/A _547_/X 0.03fF
C216 _542_/D _514_/B 0.27fF
C217 A[6] _484_/a_78_199# 0.05fF
C218 _504_/a_227_47# _436_/X 0.01fF
C219 _531_/B _558_/X 0.17fF
C220 _433_/Y _485_/D 0.02fF
C221 _571_/a_93_21# _381_/B 0.30fF
C222 _391_/B VPWR 1.38fF
C223 _452_/A _628_/Y 1.02fF
C224 _585_/B _593_/Y 0.05fF
C225 _444_/Y _471_/A 0.03fF
C226 VPWR _504_/X 4.33fF
C227 _467_/Y _531_/C 0.03fF
C228 _621_/a_78_199# _621_/a_292_297# 0.03fF
C229 _375_/a_79_199# _519_/A 0.17fF
C230 _466_/a_215_47# _466_/X 0.01fF
C231 _566_/Y VPWR 2.59fF
C232 _594_/a_109_297# _595_/X 0.09fF
C233 B[2] _618_/A 0.52fF
C234 _539_/X _486_/X 0.24fF
C235 _587_/A _437_/X 0.33fF
C236 _406_/A _458_/X 0.09fF
C237 _502_/a_215_47# _492_/X 0.11fF
C238 _567_/a_109_297# VPWR 0.01fF
C239 _545_/Y _610_/A 1.19fF
C240 _416_/a_292_297# VPWR 0.01fF
C241 _437_/X _439_/a_489_413# 0.26fF
C242 _455_/X _490_/a_78_199# 0.15fF
C243 _397_/a_76_199# _397_/a_226_47# 0.49fF
C244 _417_/D _515_/Y 0.07fF
C245 _436_/A _412_/a_76_199# 0.04fF
C246 _386_/A _470_/a_209_297# 0.07fF
C247 _485_/D _540_/X 0.04fF
C248 _433_/Y _483_/X 0.03fF
C249 _454_/X _519_/C 0.80fF
C250 _445_/A _387_/a_292_297# 0.08fF
C251 _447_/X _449_/A 0.73fF
C252 _487_/X _538_/Y 0.33fF
C253 _347_/A _515_/Y 0.16fF
C254 _382_/X _452_/A 1.47fF
C255 _343_/a_489_413# _329_/X 0.17fF
C256 _605_/a_209_297# _604_/a_209_297# 0.01fF
C257 _452_/A _452_/X 0.23fF
C258 _491_/X _524_/X 0.05fF
C259 _423_/a_78_199# _423_/a_292_297# 0.03fF
C260 _426_/A _432_/X 0.30fF
C261 _568_/a_77_199# _536_/Y 0.02fF
C262 _406_/B _390_/B 0.03fF
C263 _570_/B _530_/X 0.27fF
C264 _441_/a_78_199# VPWR 0.64fF
C265 _330_/A _374_/X 0.37fF
C266 _626_/Y _530_/X 0.03fF
C267 _587_/A _590_/B 0.47fF
C268 _587_/A _439_/a_76_199# 0.05fF
C269 _439_/a_76_199# _439_/a_489_413# 0.12fF
C270 _562_/a_78_199# _584_/A 0.42fF
C271 _493_/a_78_199# _493_/a_292_297# 0.03fF
C272 B[2] _549_/X 0.03fF
C273 _386_/A _547_/X 0.30fF
C274 _503_/a_62_47# _503_/a_381_47# 0.08fF
C275 _629_/B _371_/B 0.22fF
C276 _338_/a_79_199# _338_/X 0.29fF
C277 _540_/X _483_/X 0.05fF
C278 _614_/a_556_47# _612_/Y 0.02fF
C279 _563_/B _449_/A 0.20fF
C280 _439_/X _458_/X 0.36fF
C281 _508_/a_77_199# _507_/Y 0.44fF
C282 _591_/Y VPWR 3.33fF
C283 _590_/B _612_/A 0.31fF
C284 _420_/X _421_/a_76_199# 0.26fF
C285 _613_/a_77_199# _503_/A 0.00fF
C286 _596_/a_489_413# _600_/a_27_297# 0.01fF
C287 _350_/a_277_297# _442_/B 0.01fF
C288 _429_/a_76_199# B[5] 0.02fF
C289 _632_/a_215_47# _475_/A 0.12fF
C290 _534_/a_80_21# _381_/B 0.26fF
C291 _543_/B _542_/C 0.08fF
C292 _537_/a_227_297# _535_/Y 0.01fF
C293 _627_/D _621_/a_292_297# 0.02fF
C294 _587_/a_27_47# VPWR 0.50fF
C295 A[6] _433_/Y 0.05fF
C296 _419_/X _519_/A 0.54fF
C297 _380_/A _326_/A 0.03fF
C298 _621_/a_215_47# _591_/A 0.11fF
C299 _629_/A _363_/B 0.05fF
C300 _376_/X _383_/X 0.84fF
C301 _633_/Y _595_/X 0.03fF
C302 _328_/A _475_/A 0.25fF
C303 _616_/B _593_/A 0.66fF
C304 _487_/X _486_/X 4.08fF
C305 _378_/A _485_/D 0.09fF
C306 _625_/Y _590_/B 0.18fF
C307 _420_/X _442_/B 0.20fF
C308 _587_/A _506_/Y 0.21fF
C309 _539_/a_68_297# _539_/a_150_297# 0.02fF
C310 _538_/Y _570_/A 0.53fF
C311 _605_/a_80_21# VPWR 0.36fF
C312 _417_/D _585_/B 0.42fF
C313 _513_/A _487_/X 0.03fF
C314 input3/a_841_47# _616_/Y 0.02fF
C315 input3/a_664_47# _616_/A 0.00fF
C316 _462_/a_76_199# _462_/a_489_413# 0.12fF
C317 _569_/Y _621_/X 0.09fF
C318 _573_/A VPWR 2.20fF
C319 _408_/B _408_/X 0.01fF
C320 _623_/a_489_413# _628_/Y 0.03fF
C321 _474_/Y VPWR 0.99fF
C322 B[0] _562_/a_215_47# 0.02fF
C323 _524_/a_78_199# _524_/a_215_47# 0.26fF
C324 output24/a_27_47# _627_/D 0.00fF
C325 B[0] _472_/B 0.38fF
C326 _480_/Y _539_/A 0.11fF
C327 _630_/X _398_/a_76_199# 0.07fF
C328 _544_/a_62_47# _544_/a_558_47# 0.03fF
C329 _530_/X _381_/B 1.91fF
C330 _442_/B _411_/A 0.08fF
C331 _619_/a_27_47# VPWR 0.04fF
C332 _375_/a_222_93# _447_/B 0.00fF
C333 _542_/B _411_/A 0.09fF
C334 _327_/a_78_199# _367_/C 0.30fF
C335 _378_/a_62_47# _542_/D 0.12fF
C336 _513_/A _381_/C 2.27fF
C337 _540_/a_93_21# _540_/a_346_47# 0.05fF
C338 _627_/A _503_/A 2.59fF
C339 _445_/A _350_/C 1.49fF
C340 _523_/X _492_/a_489_413# 0.01fF
C341 _527_/A _530_/X 0.18fF
C342 _619_/a_27_47# _606_/Y 0.08fF
C343 _516_/A _539_/A 0.29fF
C344 _579_/X M[0] 0.05fF
C345 _417_/A _369_/a_556_47# 0.05fF
C346 _480_/A _410_/C 0.17fF
C347 _444_/A VPWR 3.09fF
C348 _375_/a_222_93# _376_/a_68_297# 0.01fF
C349 _411_/a_150_297# _510_/A 0.01fF
C350 _328_/X _442_/B 0.59fF
C351 VPWR B[5] 4.49fF
C352 _404_/a_62_47# _503_/A 0.31fF
C353 _592_/a_113_297# _593_/A 0.22fF
C354 _635_/Y output26/a_27_47# 0.40fF
C355 _549_/X _551_/a_226_47# 0.26fF
C356 _550_/X _551_/a_489_413# 0.14fF
C357 _570_/A _486_/X 0.68fF
C358 _390_/D _390_/B 1.99fF
C359 _417_/D _447_/X 0.05fF
C360 _381_/C _454_/X 0.99fF
C361 _612_/Y _601_/A 0.10fF
C362 _350_/C _350_/B 0.28fF
C363 _464_/A _466_/X 1.51fF
C364 _574_/X _548_/X 0.17fF
C365 _536_/a_109_297# _585_/B 0.02fF
C366 _386_/a_558_47# _570_/A 0.08fF
C367 _381_/C _334_/a_27_47# 0.37fF
C368 _575_/X _547_/X 0.01fF
C369 _335_/a_381_47# _335_/a_558_47# 0.32fF
C370 _542_/C _486_/X 0.04fF
C371 _418_/X _367_/C 0.14fF
C372 _445_/A _367_/C 0.39fF
C373 _378_/A A[6] 0.03fF
C374 _336_/a_493_297# _519_/A 0.05fF
C375 _557_/A _604_/X 0.05fF
C376 _404_/a_381_47# _609_/a_80_21# 0.03fF
C377 _534_/a_80_21# _542_/A 0.00fF
C378 _447_/a_68_297# output32/a_27_47# 0.00fF
C379 _542_/C _386_/a_558_47# 0.10fF
C380 _481_/A _410_/C 0.73fF
C381 _361_/a_556_47# _361_/X 0.02fF
C382 _513_/A _542_/C 0.69fF
C383 _442_/B _374_/X 0.17fF
C384 _476_/a_584_47# _469_/X 0.02fF
C385 _343_/a_226_47# _369_/a_226_47# 0.02fF
C386 _615_/a_215_47# _594_/X 0.03fF
C387 _340_/A _340_/a_27_47# 0.37fF
C388 VPWR _394_/a_558_47# 0.24fF
C389 _368_/B _337_/X 0.21fF
C390 _410_/B _470_/a_209_297# 0.09fF
C391 _511_/a_250_297# _509_/A 0.03fF
C392 _469_/A _571_/a_250_297# 0.02fF
C393 _476_/X _490_/X 0.20fF
C394 _465_/a_27_297# VPWR 0.65fF
C395 _627_/C _449_/A 0.28fF
C396 _561_/A _519_/C 0.20fF
C397 _400_/a_209_297# _391_/B 0.03fF
C398 _519_/a_29_53# _563_/B 0.46fF
C399 input2/a_27_47# _390_/B 0.43fF
C400 _583_/X A[3] 0.03fF
C401 _417_/D _563_/B 0.39fF
C402 _537_/a_77_199# _539_/X 0.01fF
C403 _402_/a_27_47# _439_/a_489_413# 0.02fF
C404 _455_/X _447_/B 0.71fF
C405 _563_/D _420_/X 0.14fF
C406 _630_/a_226_47# _426_/A 0.16fF
C407 B[7] _519_/C 0.02fF
C408 A[6] _505_/a_80_21# 0.10fF
C409 _454_/X _316_/a_62_47# 0.14fF
C410 _559_/a_77_199# _559_/a_323_297# 0.05fF
C411 _411_/a_68_297# _475_/A 0.07fF
C412 _408_/a_68_297# _631_/B 0.08fF
C413 _381_/a_27_47# _485_/A 0.61fF
C414 _542_/C _454_/X 0.29fF
C415 _442_/B _329_/X 0.12fF
C416 _584_/a_68_297# _621_/X 0.08fF
C417 _546_/a_226_47# VPWR 0.07fF
C418 _544_/A _563_/A 0.03fF
C419 _568_/a_77_199# _435_/a_27_47# 0.02fF
C420 _494_/a_76_199# _495_/a_226_47# 0.01fF
C421 _626_/Y _467_/a_109_297# 0.04fF
C422 _387_/a_78_199# VPWR 0.61fF
C423 _472_/Y _433_/Y 0.03fF
C424 _375_/X _352_/X 0.10fF
C425 _583_/X M[15] 0.00fF
C426 _610_/A _624_/X 0.12fF
C427 _510_/X _631_/Y 0.25fF
C428 _549_/a_76_199# _548_/X 0.22fF
C429 _549_/a_226_47# _540_/X 0.25fF
C430 _511_/a_93_21# _631_/Y 0.04fF
C431 _577_/a_76_199# _580_/A 0.22fF
C432 _546_/a_226_47# _544_/a_664_47# 0.01fF
C433 _627_/A _471_/Y 1.11fF
C434 _527_/A _557_/B 0.03fF
C435 _440_/a_76_199# VPWR 0.46fF
C436 _530_/X _542_/A 0.15fF
C437 _596_/a_76_199# _599_/Y 0.00fF
C438 _423_/a_215_47# _383_/X 0.10fF
C439 _563_/D _411_/A 0.03fF
C440 A[2] _618_/Y 0.02fF
C441 _379_/a_78_199# _379_/a_292_297# 0.03fF
C442 _564_/A _621_/X 0.00fF
C443 _626_/Y _462_/X 0.17fF
C444 _385_/a_841_47# VPWR 0.41fF
C445 _515_/Y _518_/a_93_21# 0.30fF
C446 _469_/A _535_/Y 0.01fF
C447 _426_/B _464_/Y 0.01fF
C448 _516_/a_27_47# _520_/X 0.07fF
C449 _569_/A _545_/Y 0.09fF
C450 _465_/a_27_297# _501_/Y 0.01fF
C451 _380_/A _486_/B 0.13fF
C452 _584_/A _481_/A 1.03fF
C453 _342_/X B[5] 0.30fF
C454 _446_/a_93_21# _470_/a_80_21# 0.07fF
C455 _633_/Y _584_/A 0.03fF
C456 _520_/a_226_297# _518_/X 0.02fF
C457 _520_/a_76_199# _520_/a_226_47# 0.49fF
C458 _383_/a_76_199# _383_/a_226_47# 0.49fF
C459 _373_/Y _430_/X 0.16fF
C460 _428_/a_299_297# _426_/B 0.07fF
C461 _443_/A _443_/B 0.16fF
C462 _516_/A _479_/A 0.79fF
C463 _328_/B _328_/A 0.56fF
C464 _610_/A _622_/C 0.77fF
C465 _340_/A _539_/A 0.10fF
C466 _487_/X _537_/a_77_199# 0.12fF
C467 _479_/A _539_/A 0.24fF
C468 _516_/A _340_/A 1.51fF
C469 _406_/Y _462_/X 2.10fF
C470 _445_/A _380_/A 0.03fF
C471 _378_/A _418_/B 1.33fF
C472 _452_/A _447_/B 0.13fF
C473 _589_/a_489_413# A[3] 0.09fF
C474 _627_/A _504_/X 0.04fF
C475 VPWR _482_/X 0.75fF
C476 _475_/A _631_/Y 0.03fF
C477 _557_/A _531_/B 0.50fF
C478 _435_/a_27_47# _588_/A 0.10fF
C479 input16/a_27_47# _540_/X 0.00fF
C480 _439_/X _587_/A 0.30fF
C481 _526_/a_226_47# _527_/B 0.05fF
C482 _559_/a_227_47# _535_/Y 0.13fF
C483 _576_/a_556_47# _485_/D 0.02fF
C484 _355_/a_161_47# _563_/D 0.14fF
C485 _627_/A _566_/Y 2.03fF
C486 VPWR _430_/X 1.79fF
C487 _381_/B _514_/B 0.51fF
C488 _351_/A _631_/A 0.03fF
C489 _386_/A _480_/A 0.00fF
C490 _436_/A _408_/B 1.27fF
C491 VPWR _531_/a_109_297# 0.01fF
C492 _380_/A _350_/B 2.10fF
C493 _487_/X _561_/A 0.17fF
C494 _381_/C _627_/B 0.01fF
C495 _347_/A _322_/a_27_47# 0.02fF
C496 _494_/a_226_47# _468_/X 0.01fF
C497 _538_/Y _540_/a_93_21# 0.22fF
C498 _494_/a_76_199# _494_/X 0.34fF
C499 _363_/A _397_/X 0.12fF
C500 _452_/A _376_/a_68_297# 0.00fF
C501 _396_/a_250_297# _386_/X 0.13fF
C502 _385_/a_62_47# _385_/a_381_47# 0.08fF
C503 input12/a_381_47# input12/a_558_47# 0.32fF
C504 _585_/B _595_/X 0.01fF
C505 _381_/C _448_/a_150_297# 0.02fF
C506 _437_/X _433_/Y 0.56fF
C507 _579_/a_59_75# _579_/a_145_75# 0.02fF
C508 _335_/a_664_47# _510_/A 0.05fF
C509 _503_/a_381_47# _475_/A 0.01fF
C510 _474_/A _469_/X 0.23fF
C511 _633_/A _631_/B 0.07fF
C512 _479_/a_68_297# _479_/a_150_297# 0.02fF
C513 _371_/B output26/a_27_47# 0.02fF
C514 _541_/a_78_199# _541_/a_292_297# 0.03fF
C515 B[0] _517_/X 0.05fF
C516 _386_/A _481_/A 0.36fF
C517 _350_/B _384_/a_226_47# 0.11fF
C518 VPWR _519_/C 4.27fF
C519 _480_/A _483_/a_93_21# 0.02fF
C520 _381_/C _561_/A 0.16fF
C521 _417_/D _627_/C 0.08fF
C522 _386_/A _633_/Y 0.34fF
C523 _343_/a_226_297# VPWR 0.00fF
C524 _436_/A _436_/a_68_297# 0.32fF
C525 _448_/A _628_/Y 0.03fF
C526 _485_/a_27_47# _547_/X 0.01fF
C527 _331_/a_27_47# _363_/A 0.07fF
C528 _537_/a_77_199# _570_/A 0.24fF
C529 _381_/C B[7] 0.31fF
C530 _375_/X _436_/A 0.03fF
C531 _580_/A _579_/X 0.24fF
C532 _378_/a_664_47# VPWR 0.49fF
C533 _587_/A _442_/A 0.26fF
C534 _629_/B _433_/Y 0.01fF
C535 _408_/B _350_/X 0.10fF
C536 _419_/X _337_/A 0.03fF
C537 _540_/a_93_21# _486_/X 0.10fF
C538 _497_/A _527_/a_109_297# 0.04fF
C539 VPWR _539_/X 2.18fF
C540 B[1] _391_/A 0.21fF
C541 _483_/a_93_21# _481_/A 0.01fF
C542 _510_/A _519_/A 0.46fF
C543 _594_/a_27_297# _574_/X 0.02fF
C544 _416_/a_215_47# _324_/a_62_47# 0.05fF
C545 _463_/a_226_297# VPWR 0.00fF
C546 _350_/a_27_297# _350_/a_109_297# 0.02fF
C547 _530_/a_76_199# _530_/X 0.32fF
C548 _543_/a_109_297# _543_/B 0.04fF
C549 _513_/A _547_/a_544_297# 0.04fF
C550 _493_/X _468_/X 0.06fF
C551 _551_/X _554_/A 0.01fF
C552 _448_/A _452_/X 0.03fF
C553 _463_/a_76_199# _626_/Y 0.08fF
C554 _386_/X _480_/A 0.02fF
C555 _396_/X _386_/X 0.12fF
C556 _568_/a_539_297# _567_/B 0.02fF
C557 VPWR _556_/A 2.62fF
C558 _568_/a_77_199# _566_/A 0.31fF
C559 _469_/A A[3] 0.97fF
C560 _455_/X _418_/X 0.00fF
C561 _631_/Y _511_/X 2.76fF
C562 _442_/D _479_/B 0.01fF
C563 _416_/a_493_297# _378_/A 0.09fF
C564 _527_/Y _531_/B 0.02fF
C565 _506_/Y _433_/Y 0.03fF
C566 _623_/X _612_/Y 0.46fF
C567 _519_/A _485_/D 0.01fF
C568 _474_/Y _627_/A 0.14fF
C569 _537_/a_77_199# _535_/A 0.16fF
C570 _499_/a_81_21# VPWR 0.49fF
C571 _478_/A _472_/B 0.08fF
C572 _340_/A _479_/A 0.01fF
C573 _397_/X _374_/X 1.46fF
C574 _443_/B _446_/a_250_297# 0.02fF
C575 VPWR _432_/a_68_297# 0.26fF
C576 _427_/Y _426_/A 0.88fF
C577 _542_/A _514_/B 0.06fF
C578 _567_/B _520_/X 0.03fF
C579 _519_/X _530_/X 0.08fF
C580 _466_/a_215_47# _431_/X 0.03fF
C581 _466_/a_78_199# _428_/X 0.01fF
C582 _635_/Y _635_/a_27_413# 0.35fF
C583 VPWR _575_/a_215_47# 0.08fF
C584 _390_/B _631_/Y 0.17fF
C585 _411_/a_68_297# _471_/A 0.01fF
C586 _632_/a_292_297# VPWR 0.01fF
C587 _375_/X _350_/X 0.03fF
C588 _406_/A _393_/A 0.09fF
C589 _412_/a_226_47# _412_/X 0.05fF
C590 _587_/A _610_/A 0.52fF
C591 _585_/B _410_/C 0.65fF
C592 _386_/X _481_/A 0.17fF
C593 _559_/a_539_297# _539_/X 0.02fF
C594 _533_/a_323_297# _503_/A 0.07fF
C595 _463_/a_76_199# _406_/Y 0.34fF
C596 _610_/A _612_/A 1.25fF
C597 _610_/Y _590_/B 0.01fF
C598 _444_/A _470_/a_80_21# 0.00fF
C599 _386_/X _633_/Y 0.03fF
C600 _595_/X _572_/B 0.08fF
C601 _410_/a_27_47# _410_/a_109_47# 0.03fF
C602 _536_/Y _530_/X 0.10fF
C603 input5/a_62_47# input5/a_558_47# 0.03fF
C604 B[0] _442_/D 0.05fF
C605 _444_/Y _390_/D 0.13fF
C606 _327_/a_78_199# _336_/a_215_47# 0.03fF
C607 _458_/X _421_/X 0.01fF
C608 _487_/X VPWR 8.40fF
C609 _523_/X _504_/X 0.03fF
C610 _603_/Y _504_/X 0.79fF
C611 output19/a_27_47# _628_/Y 0.02fF
C612 _390_/D _559_/a_227_297# 0.03fF
C613 _503_/a_381_47# _473_/a_77_199# 0.04fF
C614 _519_/A _631_/A 0.67fF
C615 _420_/a_448_47# _420_/X 0.01fF
C616 _613_/X _633_/Y 0.43fF
C617 _457_/X _460_/a_226_47# 0.16fF
C618 _512_/a_78_199# _514_/A 0.21fF
C619 B[1] _330_/A 0.30fF
C620 _469_/a_62_47# _469_/a_381_47# 0.08fF
C621 _413_/X _561_/A 0.00fF
C622 _432_/A _432_/a_150_297# 0.03fF
C623 _630_/a_489_413# VPWR 0.41fF
C624 _566_/A _588_/A 0.26fF
C625 _380_/A _371_/B 0.03fF
C626 _625_/Y _610_/A 0.30fF
C627 _396_/a_250_297# _395_/X 0.18fF
C628 _387_/a_215_47# _350_/C 0.11fF
C629 _519_/a_183_297# VPWR 0.00fF
C630 _452_/A _418_/X 1.67fF
C631 _568_/a_323_297# _585_/B 0.04fF
C632 _540_/X _559_/a_77_199# 0.13fF
C633 VPWR _438_/X 1.34fF
C634 _634_/Y _442_/B 0.15fF
C635 _616_/Y _624_/a_76_199# 0.37fF
C636 _510_/X _511_/a_250_297# 0.20fF
C637 _381_/C VPWR 7.02fF
C638 _511_/a_93_21# _511_/a_250_297# 0.50fF
C639 _586_/a_76_199# _586_/a_218_47# 0.04fF
C640 M[1] _591_/A 0.19fF
C641 _465_/a_373_47# _464_/A 0.05fF
C642 _400_/a_80_21# _406_/A 0.20fF
C643 _507_/Y _483_/X 0.21fF
C644 _360_/a_489_413# _519_/A 0.09fF
C645 _548_/a_226_47# _530_/X 0.06fF
C646 _543_/Y _386_/A 0.39fF
C647 _607_/a_215_47# _601_/A 0.04fF
C648 _531_/B _531_/A 0.31fF
C649 _421_/a_226_47# VPWR 0.09fF
C650 _382_/B _383_/X 0.03fF
C651 _351_/a_27_53# B[5] 0.05fF
C652 _426_/A _397_/X 0.10fF
C653 _386_/A _515_/Y 0.35fF
C654 _616_/B _598_/A 0.73fF
C655 _440_/X _459_/a_226_47# 0.05fF
C656 _338_/X _337_/A 0.30fF
C657 _585_/B _584_/A 0.02fF
C658 _382_/B _356_/a_215_47# 0.16fF
C659 _410_/B _481_/A 0.03fF
C660 _538_/Y _485_/D 0.03fF
C661 B[0] _521_/a_215_47# 0.04fF
C662 _487_/X _559_/a_539_297# 0.02fF
C663 _459_/X _460_/a_226_47# 0.62fF
C664 input11/a_27_47# A[2] 0.01fF
C665 _402_/a_27_47# _433_/Y 0.14fF
C666 _492_/a_76_199# _492_/X 0.22fF
C667 _362_/a_489_413# _361_/X 0.14fF
C668 _569_/A _622_/C 0.04fF
C669 _410_/B _633_/Y 0.01fF
C670 _456_/a_226_47# _633_/Y 0.14fF
C671 _330_/A _383_/X 0.37fF
C672 VPWR _384_/a_76_199# 0.52fF
C673 _351_/X VPWR 1.66fF
C674 _628_/a_734_297# _621_/X 0.15fF
C675 VPWR _570_/A 3.51fF
C676 M[8] _464_/Y 0.01fF
C677 _375_/a_79_199# VPWR 0.64fF
C678 _443_/a_68_297# _443_/a_150_297# 0.02fF
C679 _571_/a_250_297# _570_/a_68_297# 0.03fF
C680 _595_/a_227_47# _595_/X 0.04fF
C681 _547_/X _515_/A 0.15fF
C682 _386_/a_664_47# _520_/X 0.08fF
C683 _502_/a_215_47# _527_/A 0.01fF
C684 VPWR _508_/a_77_199# 0.95fF
C685 VPWR _316_/a_62_47# 0.58fF
C686 _580_/A _576_/X 0.01fF
C687 _583_/X _607_/a_78_199# 0.05fF
C688 _503_/a_381_47# _471_/A 0.10fF
C689 _542_/C VPWR 5.13fF
C690 _555_/a_27_413# _555_/a_298_297# 0.02fF
C691 _375_/X _423_/a_78_199# 0.01fF
C692 _469_/a_558_47# _469_/X 0.24fF
C693 _538_/Y _483_/X 0.02fF
C694 _497_/B _462_/X 0.16fF
C695 _635_/a_27_413# _370_/B 0.03fF
C696 A[6] _507_/Y 0.08fF
C697 _365_/a_81_21# _371_/A 0.24fF
C698 _521_/X _521_/a_78_199# 0.21fF
C699 _582_/Y _602_/Y 0.00fF
C700 _567_/B _457_/X 0.77fF
C701 _445_/A _335_/a_381_47# 0.02fF
C702 VPWR _552_/a_226_47# 0.09fF
C703 _444_/Y _389_/a_27_47# 0.07fF
C704 _634_/Y _634_/a_27_413# 0.37fF
C705 _376_/X _481_/A 0.04fF
C706 _583_/X _591_/A 0.01fF
C707 _567_/B _467_/Y 0.03fF
C708 _475_/A _326_/A 0.61fF
C709 VPWR _430_/a_68_297# 0.27fF
C710 _554_/X VPWR 2.78fF
C711 _547_/X _535_/Y 0.09fF
C712 _627_/D _622_/C 0.33fF
C713 _406_/A _433_/Y 0.81fF
C714 _537_/a_77_199# _540_/a_93_21# 0.02fF
C715 _564_/a_219_297# _572_/A 0.17fF
C716 _621_/X _627_/B 2.02fF
C717 _485_/D _486_/X 0.11fF
C718 VPWR _535_/A 1.81fF
C719 _484_/a_78_199# _367_/C 0.01fF
C720 _352_/a_222_93# _328_/X 0.12fF
C721 _455_/X _587_/A 0.12fF
C722 A[5] VPWR 0.53fF
C723 _628_/a_382_297# _623_/a_489_413# 0.01fF
C724 _392_/A _631_/B 1.18fF
C725 _513_/A _485_/D 0.41fF
C726 M[2] _417_/A 1.17fF
C727 _587_/A _509_/A 0.42fF
C728 _412_/a_226_47# _631_/B 0.05fF
C729 _458_/X _460_/X 0.09fF
C730 _386_/X _515_/Y 1.40fF
C731 _635_/a_27_413# _371_/B 0.21fF
C732 _569_/Y _570_/X 0.37fF
C733 B[1] _442_/B 0.03fF
C734 _559_/X _588_/A 0.27fF
C735 _567_/B _459_/X 0.58fF
C736 _419_/X VPWR 12.14fF
C737 _485_/D _486_/a_150_297# 0.02fF
C738 _483_/X _486_/X 0.56fF
C739 _634_/a_300_297# VPWR 0.56fF
C740 _413_/X VPWR 1.21fF
C741 _563_/B _584_/A 0.21fF
C742 _439_/X _433_/Y 0.00fF
C743 _380_/A _361_/a_76_199# 0.02fF
C744 _583_/a_489_413# _602_/A 0.07fF
C745 _628_/a_300_47# _564_/a_27_53# 0.03fF
C746 _543_/A _503_/A 0.31fF
C747 _417_/D _417_/A 0.10fF
C748 input3/a_558_47# input3/a_664_47# 0.60fF
C749 input3/a_381_47# input3/a_841_47# 0.03fF
C750 _567_/B _503_/A 0.08fF
C751 _566_/A _559_/X 0.02fF
C752 _563_/A _519_/C 0.17fF
C753 _355_/a_161_47# _322_/A 0.04fF
C754 _497_/A VPWR 1.87fF
C755 B[7] _621_/X 0.35fF
C756 _516_/A _448_/B 0.83fF
C757 _359_/a_68_297# _359_/X 0.27fF
C758 _580_/A _549_/X 0.13fF
C759 _626_/Y output22/a_27_47# 0.60fF
C760 _557_/Y _558_/a_77_199# 0.37fF
C761 _623_/a_226_47# _627_/B 0.02fF
C762 _412_/a_226_47# _411_/X 0.57fF
C763 _417_/A _332_/X 0.03fF
C764 _386_/a_62_47# _386_/a_381_47# 0.08fF
C765 _444_/Y _411_/a_68_297# 0.01fF
C766 _456_/X _446_/X 2.87fF
C767 VPWR _629_/a_68_297# 0.27fF
C768 _442_/D _572_/A 0.28fF
C769 _457_/a_489_413# _504_/X 0.11fF
C770 _467_/Y _558_/a_77_199# 0.01fF
C771 _544_/A _379_/a_215_47# 0.05fF
C772 _491_/a_76_199# _491_/a_226_47# 0.49fF
C773 _594_/a_27_297# _573_/A 0.37fF
C774 _588_/Y _616_/A 0.09fF
C775 _448_/A _447_/B 0.16fF
C776 _315_/a_161_47# _449_/A 0.01fF
C777 _398_/a_226_297# _374_/X 0.02fF
C778 B[7] _624_/a_585_369# 0.01fF
C779 _633_/a_74_47# _633_/a_265_297# 0.03fF
C780 _524_/a_78_199# _525_/a_76_199# 0.02fF
C781 _419_/X _314_/X 0.12fF
C782 _490_/X _455_/X 0.02fF
C783 _623_/X _628_/Y 0.28fF
C784 output23/a_27_47# M[15] 0.44fF
C785 _588_/A _571_/a_93_21# 0.01fF
C786 _550_/a_78_199# _522_/a_226_47# 0.00fF
C787 A[6] _486_/X 0.16fF
C788 _429_/a_76_199# _398_/X 0.22fF
C789 _511_/a_250_297# _511_/X 0.03fF
C790 _446_/X _478_/A 0.03fF
C791 _429_/a_226_47# _397_/X 0.15fF
C792 _360_/a_76_199# _359_/X 0.29fF
C793 _370_/A B[5] 0.34fF
C794 _383_/X _442_/B 0.03fF
C795 _626_/a_109_297# _616_/A 0.02fF
C796 _626_/a_109_47# _616_/B 0.13fF
C797 _526_/a_76_199# _524_/X 0.02fF
C798 _526_/a_489_413# _504_/X 0.18fF
C799 _526_/a_226_47# _525_/X 0.53fF
C800 _463_/a_226_47# _464_/A 0.17fF
C801 _627_/A _539_/X 0.19fF
C802 _566_/A _571_/a_93_21# 0.20fF
C803 _533_/X _522_/a_226_47# 0.16fF
C804 _503_/a_62_47# _587_/A 0.10fF
C805 _597_/a_78_199# _597_/a_292_297# 0.03fF
C806 _513_/A A[6] 0.16fF
C807 _442_/D _620_/a_226_47# 0.00fF
C808 B[3] _620_/a_489_413# 0.01fF
C809 input12/a_381_47# _618_/Y 0.01fF
C810 _628_/a_300_47# _584_/A 0.45fF
C811 _569_/A _587_/A 0.24fF
C812 _485_/A _547_/a_222_93# 0.00fF
C813 _350_/C _332_/a_150_297# 0.01fF
C814 _422_/a_489_413# VPWR 0.39fF
C815 _569_/A _612_/A 0.21fF
C816 _512_/a_78_199# _512_/a_215_47# 0.26fF
C817 _423_/a_215_47# _396_/X 0.09fF
C818 _433_/Y _442_/A 0.16fF
C819 _498_/A _531_/A 0.30fF
C820 _350_/a_27_297# _350_/B 0.41fF
C821 _442_/D _542_/D 0.03fF
C822 output27/a_27_47# _432_/X 0.12fF
C823 _477_/a_493_297# VPWR 0.01fF
C824 _417_/D _484_/a_215_47# 0.16fF
C825 _371_/a_68_297# _432_/B 0.02fF
C826 _525_/a_489_413# VPWR 0.39fF
C827 _384_/X _397_/a_226_47# 0.33fF
C828 _506_/A _480_/A 0.08fF
C829 _539_/a_68_297# _587_/A 0.45fF
C830 _408_/X _408_/a_68_297# 0.27fF
C831 _390_/B _326_/A 0.03fF
C832 _586_/a_76_199# B[7] 0.10fF
C833 _627_/C _564_/a_27_53# 0.12fF
C834 _474_/A _533_/a_227_47# 0.02fF
C835 _497_/B _463_/a_76_199# 0.04fF
C836 _532_/a_76_199# _530_/X 0.12fF
C837 _576_/a_226_47# VPWR 0.18fF
C838 A[4] _390_/B 0.24fF
C839 _584_/A _322_/a_27_47# 0.02fF
C840 _336_/a_493_297# VPWR 0.01fF
C841 A[6] _454_/X 0.09fF
C842 _417_/D _469_/X 0.08fF
C843 _614_/a_76_199# _616_/A 0.22fF
C844 _567_/B _471_/Y 0.02fF
C845 _569_/A _625_/Y 0.07fF
C846 _386_/a_841_47# _386_/X 0.03fF
C847 A[3] _547_/X 0.03fF
C848 _590_/A _622_/X 0.45fF
C849 _588_/A _592_/a_113_297# 0.05fF
C850 _587_/A _627_/D 0.16fF
C851 _627_/D _612_/A 0.12fF
C852 _520_/X _537_/a_227_297# 0.03fF
C853 _428_/a_299_297# _428_/X 0.03fF
C854 _544_/A _567_/B 0.25fF
C855 _626_/Y _594_/X 0.07fF
C856 _585_/B _609_/a_80_21# 0.01fF
C857 _382_/a_68_297# _383_/a_489_413# 0.00fF
C858 _392_/Y _631_/B 0.56fF
C859 _494_/a_76_199# _494_/a_226_297# 0.01fF
C860 _494_/a_226_47# _494_/a_489_413# 0.02fF
C861 VPWR _489_/a_489_413# 0.39fF
C862 _366_/a_76_199# _366_/a_226_297# 0.01fF
C863 _366_/a_226_47# _366_/a_489_413# 0.02fF
C864 _487_/a_215_47# _487_/X 0.01fF
C865 VPWR _607_/a_292_297# 0.02fF
C866 _487_/X _563_/A 2.49fF
C867 _378_/a_664_47# _324_/a_558_47# 0.04fF
C868 _485_/A _518_/X 0.32fF
C869 _327_/a_292_297# _631_/A 0.02fF
C870 _314_/a_68_297# _328_/a_68_297# 0.01fF
C871 _608_/X _584_/A 0.02fF
C872 A[5] _399_/a_215_47# 0.33fF
C873 _461_/a_78_199# _422_/X 0.01fF
C874 _417_/D _512_/a_78_199# 0.12fF
C875 A[3] _570_/a_68_297# 0.03fF
C876 VPWR _540_/a_93_21# 0.40fF
C877 _338_/X VPWR 2.63fF
C878 _544_/A _565_/a_209_47# 0.03fF
C879 _471_/Y _468_/a_78_199# 0.01fF
C880 _550_/a_78_199# _521_/X 0.15fF
C881 _614_/a_489_413# M[1] 0.02fF
C882 VPWR _547_/a_544_297# 0.01fF
C883 _442_/D _478_/A 0.63fF
C884 _610_/A _433_/Y 0.02fF
C885 _596_/a_76_199# _626_/Y 0.08fF
C886 _575_/a_215_47# _548_/X 0.05fF
C887 _575_/a_493_297# _547_/X 0.08fF
C888 _353_/X _359_/X 1.47fF
C889 _324_/a_381_47# _367_/C 0.67fF
C890 _442_/a_27_47# _442_/A 0.48fF
C891 _599_/A _607_/a_78_199# 0.00fF
C892 _487_/X _627_/A 0.18fF
C893 _337_/A _631_/A 0.44fF
C894 _390_/D _328_/A 0.05fF
C895 VPWR _621_/X 2.18fF
C896 _347_/A _512_/a_78_199# 0.54fF
C897 _625_/Y _627_/D 0.28fF
C898 _533_/X _521_/X 0.51fF
C899 _597_/a_215_47# _574_/X 0.11fF
C900 _627_/C _584_/A 1.37fF
C901 VPWR _398_/X 1.19fF
C902 _586_/a_439_47# _503_/A 0.06fF
C903 _335_/a_62_47# VPWR 0.54fF
C904 _442_/D _619_/Y 0.00fF
C905 _567_/B _504_/X 0.03fF
C906 _513_/a_27_47# _542_/D 0.00fF
C907 _440_/a_489_413# _468_/X 0.01fF
C908 _464_/A _498_/A 0.02fF
C909 _413_/a_68_297# M[9] 0.01fF
C910 _381_/C _563_/A 1.39fF
C911 _432_/B _432_/X 0.01fF
C912 _445_/A _475_/A 2.03fF
C913 _451_/a_27_47# _451_/A 0.31fF
C914 input5/a_558_47# _478_/A 0.35fF
C915 _340_/A _530_/X 0.05fF
C916 _378_/A _367_/C 0.06fF
C917 _567_/B _566_/Y 0.31fF
C918 _551_/a_76_199# _552_/a_76_199# 0.05fF
C919 _627_/A _438_/X 0.28fF