* NGSPICE file created from dvsd_8216m9.ext - technology: sky130A

* Black-box entry subcircuit for sky130_fd_sc_hd__or2_1 abstract view
.subckt sky130_fd_sc_hd__or2_1 A B VGND VNB VPB VPWR X
.ends

* Black-box entry subcircuit for sky130_fd_sc_hd__fill_1 abstract view
.subckt sky130_fd_sc_hd__fill_1 VGND VNB VPB VPWR
.ends

* Black-box entry subcircuit for sky130_fd_sc_hd__a2bb2oi_1 abstract view
.subckt sky130_fd_sc_hd__a2bb2oi_1 A1_N A2_N B1 B2 VGND VNB VPB VPWR Y
.ends

* Black-box entry subcircuit for sky130_fd_sc_hd__decap_8 abstract view
.subckt sky130_fd_sc_hd__decap_8 VGND VNB VPB VPWR
.ends

* Black-box entry subcircuit for sky130_fd_sc_hd__decap_4 abstract view
.subckt sky130_fd_sc_hd__decap_4 VGND VNB VPB VPWR
.ends

* Black-box entry subcircuit for sky130_fd_sc_hd__buf_6 abstract view
.subckt sky130_fd_sc_hd__buf_6 A VGND VNB VPB VPWR X
.ends

* Black-box entry subcircuit for sky130_fd_sc_hd__buf_1 abstract view
.subckt sky130_fd_sc_hd__buf_1 A VGND VNB VPB VPWR X
.ends

* Black-box entry subcircuit for sky130_fd_sc_hd__a2bb2o_1 abstract view
.subckt sky130_fd_sc_hd__a2bb2o_1 A1_N A2_N B1 B2 VGND VNB VPB VPWR X
.ends

* Black-box entry subcircuit for sky130_fd_sc_hd__decap_12 abstract view
.subckt sky130_fd_sc_hd__decap_12 VGND VNB VPB VPWR
.ends

* Black-box entry subcircuit for sky130_fd_sc_hd__a22o_1 abstract view
.subckt sky130_fd_sc_hd__a22o_1 A1 A2 B1 B2 VGND VNB VPB VPWR X
.ends

* Black-box entry subcircuit for sky130_fd_sc_hd__clkbuf_2 abstract view
.subckt sky130_fd_sc_hd__clkbuf_2 A VGND VNB VPB VPWR X
.ends

* Black-box entry subcircuit for sky130_fd_sc_hd__tapvpwrvgnd_1 abstract view
.subckt sky130_fd_sc_hd__tapvpwrvgnd_1 VGND VPWR
.ends

* Black-box entry subcircuit for sky130_fd_sc_hd__decap_3 abstract view
.subckt sky130_fd_sc_hd__decap_3 VGND VNB VPB VPWR
.ends

* Black-box entry subcircuit for sky130_fd_sc_hd__o22a_1 abstract view
.subckt sky130_fd_sc_hd__o22a_1 A1 A2 B1 B2 VGND VNB VPB VPWR X
.ends

* Black-box entry subcircuit for sky130_fd_sc_hd__decap_6 abstract view
.subckt sky130_fd_sc_hd__decap_6 VGND VNB VPB VPWR
.ends

* Black-box entry subcircuit for sky130_fd_sc_hd__inv_2 abstract view
.subckt sky130_fd_sc_hd__inv_2 A VGND VNB VPB VPWR Y
.ends

* Black-box entry subcircuit for sky130_fd_sc_hd__fill_2 abstract view
.subckt sky130_fd_sc_hd__fill_2 VGND VNB VPB VPWR
.ends

* Black-box entry subcircuit for sky130_fd_sc_hd__o221ai_2 abstract view
.subckt sky130_fd_sc_hd__o221ai_2 A1 A2 B1 B2 C1 VGND VNB VPB VPWR Y
.ends

* Black-box entry subcircuit for sky130_fd_sc_hd__o32a_1 abstract view
.subckt sky130_fd_sc_hd__o32a_1 A1 A2 A3 B1 B2 VGND VNB VPB VPWR X
.ends

* Black-box entry subcircuit for sky130_fd_sc_hd__a21oi_1 abstract view
.subckt sky130_fd_sc_hd__a21oi_1 A1 A2 B1 VGND VNB VPB VPWR Y
.ends

* Black-box entry subcircuit for sky130_fd_sc_hd__or4_1 abstract view
.subckt sky130_fd_sc_hd__or4_1 A B C D VGND VNB VPB VPWR X
.ends

* Black-box entry subcircuit for sky130_fd_sc_hd__a21o_1 abstract view
.subckt sky130_fd_sc_hd__a21o_1 A1 A2 B1 VGND VNB VPB VPWR X
.ends

* Black-box entry subcircuit for sky130_fd_sc_hd__nor2_1 abstract view
.subckt sky130_fd_sc_hd__nor2_1 A B VGND VNB VPB VPWR Y
.ends

* Black-box entry subcircuit for sky130_fd_sc_hd__a31o_1 abstract view
.subckt sky130_fd_sc_hd__a31o_1 A1 A2 A3 B1 VGND VNB VPB VPWR X
.ends

* Black-box entry subcircuit for sky130_fd_sc_hd__a31oi_2 abstract view
.subckt sky130_fd_sc_hd__a31oi_2 A1 A2 A3 B1 VGND VNB VPB VPWR Y
.ends

* Black-box entry subcircuit for sky130_fd_sc_hd__and4_1 abstract view
.subckt sky130_fd_sc_hd__and4_1 A B C D VGND VNB VPB VPWR X
.ends

* Black-box entry subcircuit for sky130_fd_sc_hd__dlymetal6s2s_1 abstract view
.subckt sky130_fd_sc_hd__dlymetal6s2s_1 A VGND VNB VPB VPWR X
.ends

* Black-box entry subcircuit for sky130_fd_sc_hd__a21bo_1 abstract view
.subckt sky130_fd_sc_hd__a21bo_1 A1 A2 B1_N VGND VNB VPB VPWR X
.ends

* Black-box entry subcircuit for sky130_fd_sc_hd__o2bb2a_1 abstract view
.subckt sky130_fd_sc_hd__o2bb2a_1 A1_N A2_N B1 B2 VGND VNB VPB VPWR X
.ends

* Black-box entry subcircuit for sky130_fd_sc_hd__a32o_1 abstract view
.subckt sky130_fd_sc_hd__a32o_1 A1 A2 A3 B1 B2 VGND VNB VPB VPWR X
.ends

* Black-box entry subcircuit for sky130_fd_sc_hd__or3_1 abstract view
.subckt sky130_fd_sc_hd__or3_1 A B C VGND VNB VPB VPWR X
.ends

* Black-box entry subcircuit for sky130_fd_sc_hd__o21ai_1 abstract view
.subckt sky130_fd_sc_hd__o21ai_1 A1 A2 B1 VGND VNB VPB VPWR Y
.ends

* Black-box entry subcircuit for sky130_fd_sc_hd__nor3_1 abstract view
.subckt sky130_fd_sc_hd__nor3_1 A B C VGND VNB VPB VPWR Y
.ends

* Black-box entry subcircuit for sky130_fd_sc_hd__a21oi_2 abstract view
.subckt sky130_fd_sc_hd__a21oi_2 A1 A2 B1 VGND VNB VPB VPWR Y
.ends

* Black-box entry subcircuit for sky130_fd_sc_hd__o21ba_1 abstract view
.subckt sky130_fd_sc_hd__o21ba_1 A1 A2 B1_N VGND VNB VPB VPWR X
.ends

* Black-box entry subcircuit for sky130_fd_sc_hd__mux2_1 abstract view
.subckt sky130_fd_sc_hd__mux2_1 A0 A1 S VGND VNB VPB VPWR X
.ends

* Black-box entry subcircuit for sky130_fd_sc_hd__nand2_1 abstract view
.subckt sky130_fd_sc_hd__nand2_1 A B VGND VNB VPB VPWR Y
.ends

* Black-box entry subcircuit for sky130_fd_sc_hd__a21boi_1 abstract view
.subckt sky130_fd_sc_hd__a21boi_1 A1 A2 B1_N VGND VNB VPB VPWR Y
.ends

* Black-box entry subcircuit for sky130_fd_sc_hd__or2b_1 abstract view
.subckt sky130_fd_sc_hd__or2b_1 A B_N VGND VNB VPB VPWR X
.ends

* Black-box entry subcircuit for sky130_fd_sc_hd__nand2b_1 abstract view
.subckt sky130_fd_sc_hd__nand2b_1 A_N B VGND VNB VPB VPWR Y
.ends

* Black-box entry subcircuit for sky130_fd_sc_hd__nor2b_1 abstract view
.subckt sky130_fd_sc_hd__nor2b_1 A B_N VGND VNB VPB VPWR Y
.ends

* Black-box entry subcircuit for sky130_fd_sc_hd__clkbuf_1 abstract view
.subckt sky130_fd_sc_hd__clkbuf_1 A VGND VNB VPB VPWR X
.ends

* Black-box entry subcircuit for sky130_fd_sc_hd__and2_1 abstract view
.subckt sky130_fd_sc_hd__and2_1 A B VGND VNB VPB VPWR X
.ends

.subckt dvsd_8216m9 A[0] A[1] A[2] A[3] A[4] A[5] A[6] A[7] B[0] B[1] B[2] B[3] B[4]
+ B[5] B[6] B[7] M[0] M[10] M[11] M[12] M[13] M[14] M[15] M[1] M[2] M[3] M[4] M[5]
+ M[6] M[7] M[8] M[9] VGND VPWR
X_432_ _432_/A _432_/B VGND VGND VPWR VPWR _432_/X sky130_fd_sc_hd__or2_1
XFILLER_26_85 VGND VGND VPWR VPWR sky130_fd_sc_hd__fill_1
X_501_ _531_/A _531_/C _531_/A _531_/C VGND VGND VPWR VPWR _501_/Y sky130_fd_sc_hd__a2bb2oi_1
X_363_ _363_/A _363_/B VGND VGND VPWR VPWR _430_/A sky130_fd_sc_hd__or2_1
XFILLER_13_155 VGND VGND VPWR VPWR sky130_fd_sc_hd__decap_8
XFILLER_13_100 VGND VGND VPWR VPWR sky130_fd_sc_hd__decap_4
X_346_ _346_/A VGND VGND VPWR VPWR _347_/A sky130_fd_sc_hd__buf_6
XFILLER_10_136 VGND VGND VPWR VPWR sky130_fd_sc_hd__decap_4
X_415_ _448_/A VGND VGND VPWR VPWR _561_/A sky130_fd_sc_hd__buf_1
X_329_ _314_/X _328_/X _314_/X _328_/X VGND VGND VPWR VPWR _329_/X sky130_fd_sc_hd__a2bb2o_1
XFILLER_0_13 VGND VGND VPWR VPWR sky130_fd_sc_hd__decap_4
XFILLER_9_11 VGND VGND VPWR VPWR sky130_fd_sc_hd__fill_1
XFILLER_9_77 VGND VGND VPWR VPWR sky130_fd_sc_hd__decap_4
XFILLER_18_53 VGND VGND VPWR VPWR sky130_fd_sc_hd__decap_12
XFILLER_18_20 VGND VGND VPWR VPWR sky130_fd_sc_hd__decap_8
X_594_ _573_/A _593_/Y _573_/Y _593_/A VGND VGND VPWR VPWR _594_/X sky130_fd_sc_hd__a22o_1
XFILLER_13_3 VGND VGND VPWR VPWR sky130_fd_sc_hd__decap_4
Xoutput31 _501_/Y VGND VGND VPWR VPWR M[8] sky130_fd_sc_hd__clkbuf_2
XFILLER_16_120 VGND VGND VPWR VPWR sky130_fd_sc_hd__decap_4
Xoutput20 _607_/X VGND VGND VPWR VPWR M[12] sky130_fd_sc_hd__clkbuf_2
X_577_ _559_/X _576_/X _559_/X _576_/X VGND VGND VPWR VPWR _580_/A sky130_fd_sc_hd__a2bb2o_1
XTAP_123 VGND VPWR sky130_fd_sc_hd__tapvpwrvgnd_1
XFILLER_22_101 VGND VGND VPWR VPWR sky130_fd_sc_hd__decap_3
XTAP_112 VGND VPWR sky130_fd_sc_hd__tapvpwrvgnd_1
XTAP_101 VGND VPWR sky130_fd_sc_hd__tapvpwrvgnd_1
XFILLER_26_75 VGND VGND VPWR VPWR sky130_fd_sc_hd__fill_1
X_431_ _428_/X _430_/X _428_/X _430_/X VGND VGND VPWR VPWR _431_/X sky130_fd_sc_hd__a2bb2o_1
X_362_ _351_/X _361_/X _351_/X _361_/X VGND VGND VPWR VPWR _363_/B sky130_fd_sc_hd__a2bb2o_1
X_500_ _427_/A _464_/A _465_/X _466_/X VGND VGND VPWR VPWR _531_/C sky130_fd_sc_hd__o22a_1
XFILLER_3_57 VGND VGND VPWR VPWR sky130_fd_sc_hd__decap_6
X_629_ _629_/A _629_/B VGND VGND VPWR VPWR _629_/X sky130_fd_sc_hd__or2_1
XFILLER_10_148 VGND VGND VPWR VPWR sky130_fd_sc_hd__decap_4
X_345_ _442_/B VGND VGND VPWR VPWR _346_/A sky130_fd_sc_hd__inv_2
X_414_ _542_/A VGND VGND VPWR VPWR _448_/A sky130_fd_sc_hd__inv_2
X_328_ _328_/A _328_/B VGND VGND VPWR VPWR _328_/X sky130_fd_sc_hd__or2_1
XFILLER_9_34 VGND VGND VPWR VPWR sky130_fd_sc_hd__decap_4
XFILLER_18_65 VGND VGND VPWR VPWR sky130_fd_sc_hd__fill_1
X_593_ _593_/A VGND VGND VPWR VPWR _593_/Y sky130_fd_sc_hd__inv_2
XFILLER_6_13 VGND VGND VPWR VPWR sky130_fd_sc_hd__decap_4
XFILLER_6_24 VGND VGND VPWR VPWR sky130_fd_sc_hd__decap_4
XFILLER_6_68 VGND VGND VPWR VPWR sky130_fd_sc_hd__decap_4
XFILLER_25_121 VGND VGND VPWR VPWR sky130_fd_sc_hd__decap_8
XFILLER_15_55 VGND VGND VPWR VPWR sky130_fd_sc_hd__fill_1
XFILLER_15_88 VGND VGND VPWR VPWR sky130_fd_sc_hd__fill_1
Xoutput21 _620_/X VGND VGND VPWR VPWR M[13] sky130_fd_sc_hd__clkbuf_2
X_576_ _574_/X _575_/X _574_/X _575_/X VGND VGND VPWR VPWR _576_/X sky130_fd_sc_hd__a2bb2o_1
Xoutput32 _530_/X VGND VGND VPWR VPWR M[9] sky130_fd_sc_hd__clkbuf_2
XTAP_124 VGND VPWR sky130_fd_sc_hd__tapvpwrvgnd_1
XTAP_113 VGND VPWR sky130_fd_sc_hd__tapvpwrvgnd_1
XTAP_102 VGND VPWR sky130_fd_sc_hd__tapvpwrvgnd_1
X_361_ _352_/X _360_/X _352_/X _360_/X VGND VGND VPWR VPWR _361_/X sky130_fd_sc_hd__a2bb2o_1
X_430_ _430_/A _432_/B VGND VGND VPWR VPWR _430_/X sky130_fd_sc_hd__or2_1
XFILLER_13_124 VGND VGND VPWR VPWR sky130_fd_sc_hd__decap_4
XFILLER_13_113 VGND VGND VPWR VPWR sky130_fd_sc_hd__fill_2
XFILLER_9_139 VGND VGND VPWR VPWR sky130_fd_sc_hd__decap_6
X_628_ _621_/X _622_/X _623_/X _625_/Y _627_/X VGND VGND VPWR VPWR _628_/Y sky130_fd_sc_hd__o221ai_2
XFILLER_3_36 VGND VGND VPWR VPWR sky130_fd_sc_hd__decap_4
X_559_ _570_/A _503_/A _535_/Y _538_/Y _539_/X VGND VGND VPWR VPWR _559_/X sky130_fd_sc_hd__o32a_1
XFILLER_12_12 VGND VGND VPWR VPWR sky130_fd_sc_hd__decap_4
X_344_ _329_/X _338_/X _342_/X _343_/X VGND VGND VPWR VPWR _363_/A sky130_fd_sc_hd__o22a_1
X_413_ _447_/B _516_/A VGND VGND VPWR VPWR _413_/X sky130_fd_sc_hd__or2_1
XFILLER_23_66 VGND VGND VPWR VPWR sky130_fd_sc_hd__decap_6
XFILLER_23_55 VGND VGND VPWR VPWR sky130_fd_sc_hd__fill_1
XFILLER_0_37 VGND VGND VPWR VPWR sky130_fd_sc_hd__decap_4
XFILLER_2_156 VGND VGND VPWR VPWR sky130_fd_sc_hd__decap_8
XFILLER_3_3 VGND VGND VPWR VPWR sky130_fd_sc_hd__decap_3
X_327_ _631_/A _481_/A _367_/C _445_/A VGND VGND VPWR VPWR _328_/B sky130_fd_sc_hd__o22a_1
XFILLER_1_91 VGND VGND VPWR VPWR sky130_fd_sc_hd__fill_2
X_592_ _590_/A _590_/B _591_/Y VGND VGND VPWR VPWR _593_/A sky130_fd_sc_hd__a21oi_1
XFILLER_19_163 VGND VGND VPWR VPWR sky130_fd_sc_hd__fill_1
Xoutput22 _626_/Y VGND VGND VPWR VPWR M[14] sky130_fd_sc_hd__clkbuf_2
X_575_ _546_/X _547_/X _540_/X _548_/X VGND VGND VPWR VPWR _575_/X sky130_fd_sc_hd__o22a_1
XTAP_125 VGND VPWR sky130_fd_sc_hd__tapvpwrvgnd_1
XTAP_114 VGND VPWR sky130_fd_sc_hd__tapvpwrvgnd_1
XTAP_103 VGND VPWR sky130_fd_sc_hd__tapvpwrvgnd_1
X_360_ _353_/X _359_/X _353_/X _359_/X VGND VGND VPWR VPWR _360_/X sky130_fd_sc_hd__a2bb2o_1
XFILLER_9_107 VGND VGND VPWR VPWR sky130_fd_sc_hd__decap_4
XFILLER_9_129 VGND VGND VPWR VPWR sky130_fd_sc_hd__decap_6
X_558_ _557_/A _557_/B _556_/Y _556_/A _557_/Y VGND VGND VPWR VPWR _558_/X sky130_fd_sc_hd__o32a_1
X_489_ _483_/X _488_/X _483_/X _488_/X VGND VGND VPWR VPWR _489_/X sky130_fd_sc_hd__a2bb2o_1
X_627_ _627_/A _627_/B _627_/C _627_/D VGND VGND VPWR VPWR _627_/X sky130_fd_sc_hd__or4_1
XFILLER_10_128 VGND VGND VPWR VPWR sky130_fd_sc_hd__fill_1
XFILLER_10_117 VGND VGND VPWR VPWR sky130_fd_sc_hd__decap_4
XFILLER_5_7 VGND VGND VPWR VPWR sky130_fd_sc_hd__decap_4
X_343_ _329_/X _338_/X _329_/X _338_/X VGND VGND VPWR VPWR _343_/X sky130_fd_sc_hd__a2bb2o_1
X_412_ _408_/X _411_/X _408_/X _411_/X VGND VGND VPWR VPWR _412_/X sky130_fd_sc_hd__a2bb2o_1
XFILLER_5_121 VGND VGND VPWR VPWR sky130_fd_sc_hd__decap_6
XFILLER_4_80 VGND VGND VPWR VPWR sky130_fd_sc_hd__decap_4
XFILLER_0_27 VGND VGND VPWR VPWR sky130_fd_sc_hd__fill_1
XFILLER_2_124 VGND VGND VPWR VPWR sky130_fd_sc_hd__decap_4
XFILLER_2_135 VGND VGND VPWR VPWR sky130_fd_sc_hd__decap_4
X_326_ _326_/A VGND VGND VPWR VPWR _445_/A sky130_fd_sc_hd__buf_1
XFILLER_20_24 VGND VGND VPWR VPWR sky130_fd_sc_hd__decap_4
XFILLER_20_68 VGND VGND VPWR VPWR sky130_fd_sc_hd__fill_1
X_591_ _591_/A VGND VGND VPWR VPWR _591_/Y sky130_fd_sc_hd__inv_2
XFILLER_15_68 VGND VGND VPWR VPWR sky130_fd_sc_hd__decap_4
XFILLER_15_57 VGND VGND VPWR VPWR sky130_fd_sc_hd__fill_1
XFILLER_15_13 VGND VGND VPWR VPWR sky130_fd_sc_hd__decap_4
Xoutput23 _628_/Y VGND VGND VPWR VPWR M[15] sky130_fd_sc_hd__clkbuf_2
XTAP_126 VGND VPWR sky130_fd_sc_hd__tapvpwrvgnd_1
XTAP_115 VGND VPWR sky130_fd_sc_hd__tapvpwrvgnd_1
XTAP_104 VGND VPWR sky130_fd_sc_hd__tapvpwrvgnd_1
XFILLER_16_134 VGND VGND VPWR VPWR sky130_fd_sc_hd__decap_6
XFILLER_16_112 VGND VGND VPWR VPWR sky130_fd_sc_hd__fill_1
XFILLER_11_3 VGND VGND VPWR VPWR sky130_fd_sc_hd__decap_3
X_574_ _572_/A _572_/B _573_/Y VGND VGND VPWR VPWR _574_/X sky130_fd_sc_hd__a21o_1
XFILLER_13_104 VGND VGND VPWR VPWR sky130_fd_sc_hd__fill_1
X_557_ _557_/A _557_/B VGND VGND VPWR VPWR _557_/Y sky130_fd_sc_hd__nor2_1
X_626_ _623_/X _625_/Y _623_/X _625_/Y VGND VGND VPWR VPWR _626_/Y sky130_fd_sc_hd__a2bb2oi_1
X_488_ _486_/X _487_/X _486_/X _487_/X VGND VGND VPWR VPWR _488_/X sky130_fd_sc_hd__a2bb2o_1
XFILLER_8_141 VGND VGND VPWR VPWR sky130_fd_sc_hd__fill_1
XFILLER_8_163 VGND VGND VPWR VPWR sky130_fd_sc_hd__fill_1
X_342_ _350_/C _631_/B VGND VGND VPWR VPWR _342_/X sky130_fd_sc_hd__or2_1
X_411_ _411_/A _411_/B VGND VGND VPWR VPWR _411_/X sky130_fd_sc_hd__or2_1
XFILLER_12_58 VGND VGND VPWR VPWR sky130_fd_sc_hd__fill_2
X_609_ _542_/D _469_/X _622_/C _608_/X VGND VGND VPWR VPWR _610_/A sky130_fd_sc_hd__a31o_1
XFILLER_23_57 VGND VGND VPWR VPWR sky130_fd_sc_hd__fill_1
X_325_ _390_/D VGND VGND VPWR VPWR _326_/A sky130_fd_sc_hd__inv_2
XFILLER_18_13 VGND VGND VPWR VPWR sky130_fd_sc_hd__decap_4
XFILLER_1_71 VGND VGND VPWR VPWR sky130_fd_sc_hd__decap_4
X_590_ _590_/A _590_/B VGND VGND VPWR VPWR _591_/A sky130_fd_sc_hd__or2_1
XFILLER_19_132 VGND VGND VPWR VPWR sky130_fd_sc_hd__decap_8
XFILLER_13_7 VGND VGND VPWR VPWR sky130_fd_sc_hd__fill_1
XFILLER_10_80 VGND VGND VPWR VPWR sky130_fd_sc_hd__decap_4
Xoutput24 _633_/Y VGND VGND VPWR VPWR M[1] sky130_fd_sc_hd__clkbuf_2
XTAP_127 VGND VPWR sky130_fd_sc_hd__tapvpwrvgnd_1
XTAP_116 VGND VPWR sky130_fd_sc_hd__tapvpwrvgnd_1
XTAP_105 VGND VPWR sky130_fd_sc_hd__tapvpwrvgnd_1
X_573_ _573_/A VGND VGND VPWR VPWR _573_/Y sky130_fd_sc_hd__inv_2
XFILLER_22_138 VGND VGND VPWR VPWR sky130_fd_sc_hd__fill_2
XFILLER_7_92 VGND VGND VPWR VPWR sky130_fd_sc_hd__decap_4
XFILLER_26_57 VGND VGND VPWR VPWR sky130_fd_sc_hd__decap_6
XFILLER_21_160 VGND VGND VPWR VPWR sky130_fd_sc_hd__decap_4
X_625_ _601_/A _618_/A _606_/A _624_/X VGND VGND VPWR VPWR _625_/Y sky130_fd_sc_hd__a31oi_2
X_556_ _556_/A VGND VGND VPWR VPWR _556_/Y sky130_fd_sc_hd__inv_2
XFILLER_12_160 VGND VGND VPWR VPWR sky130_fd_sc_hd__decap_4
X_487_ _449_/A _452_/X _447_/X _453_/X VGND VGND VPWR VPWR _487_/X sky130_fd_sc_hd__o22a_1
X_341_ _436_/A VGND VGND VPWR VPWR _631_/B sky130_fd_sc_hd__buf_1
X_410_ _542_/B _410_/B _410_/C _542_/C VGND VGND VPWR VPWR _411_/B sky130_fd_sc_hd__and4_1
XFILLER_10_108 VGND VGND VPWR VPWR sky130_fd_sc_hd__decap_4
X_539_ _539_/A _587_/A VGND VGND VPWR VPWR _539_/X sky130_fd_sc_hd__or2_1
X_608_ _627_/A _627_/B _627_/C _627_/D VGND VGND VPWR VPWR _608_/X sky130_fd_sc_hd__o22a_1
XFILLER_23_25 VGND VGND VPWR VPWR sky130_fd_sc_hd__decap_4
XFILLER_0_29 VGND VGND VPWR VPWR sky130_fd_sc_hd__decap_4
X_324_ _448_/B VGND VGND VPWR VPWR _367_/C sky130_fd_sc_hd__dlymetal6s2s_1
XFILLER_1_83 VGND VGND VPWR VPWR sky130_fd_sc_hd__decap_8
XFILLER_20_37 VGND VGND VPWR VPWR sky130_fd_sc_hd__decap_4
XFILLER_19_111 VGND VGND VPWR VPWR sky130_fd_sc_hd__fill_1
XFILLER_15_37 VGND VGND VPWR VPWR sky130_fd_sc_hd__decap_4
Xoutput25 _634_/Y VGND VGND VPWR VPWR M[2] sky130_fd_sc_hd__clkbuf_2
X_572_ _572_/A _572_/B VGND VGND VPWR VPWR _573_/A sky130_fd_sc_hd__or2_1
XTAP_128 VGND VPWR sky130_fd_sc_hd__tapvpwrvgnd_1
XTAP_117 VGND VPWR sky130_fd_sc_hd__tapvpwrvgnd_1
XTAP_106 VGND VPWR sky130_fd_sc_hd__tapvpwrvgnd_1
XPHY_0 VGND VGND VPWR VPWR sky130_fd_sc_hd__decap_3
XFILLER_7_60 VGND VGND VPWR VPWR sky130_fd_sc_hd__decap_4
XFILLER_26_47 VGND VGND VPWR VPWR sky130_fd_sc_hd__decap_4
XFILLER_26_36 VGND VGND VPWR VPWR sky130_fd_sc_hd__decap_4
XFILLER_26_25 VGND VGND VPWR VPWR sky130_fd_sc_hd__decap_3
XFILLER_3_18 VGND VGND VPWR VPWR sky130_fd_sc_hd__fill_1
XFILLER_3_29 VGND VGND VPWR VPWR sky130_fd_sc_hd__decap_4
XFILLER_16_80 VGND VGND VPWR VPWR sky130_fd_sc_hd__decap_4
X_555_ _554_/A _554_/B _554_/X VGND VGND VPWR VPWR _556_/A sky130_fd_sc_hd__a21bo_1
X_624_ _616_/A _616_/B _599_/Y _616_/Y VGND VGND VPWR VPWR _624_/X sky130_fd_sc_hd__o2bb2a_1
X_486_ _486_/A _486_/B VGND VGND VPWR VPWR _486_/X sky130_fd_sc_hd__or2_1
XFILLER_8_110 VGND VGND VPWR VPWR sky130_fd_sc_hd__fill_1
XFILLER_12_38 VGND VGND VPWR VPWR sky130_fd_sc_hd__decap_12
X_340_ _340_/A VGND VGND VPWR VPWR _350_/C sky130_fd_sc_hd__clkbuf_2
X_607_ _601_/Y _606_/Y _601_/A _606_/A VGND VGND VPWR VPWR _607_/X sky130_fd_sc_hd__o22a_1
XFILLER_5_113 VGND VGND VPWR VPWR sky130_fd_sc_hd__fill_1
XFILLER_5_135 VGND VGND VPWR VPWR sky130_fd_sc_hd__decap_4
XFILLER_5_146 VGND VGND VPWR VPWR sky130_fd_sc_hd__decap_4
X_538_ _538_/A VGND VGND VPWR VPWR _538_/Y sky130_fd_sc_hd__inv_2
XFILLER_23_37 VGND VGND VPWR VPWR sky130_fd_sc_hd__decap_4
X_469_ _469_/A VGND VGND VPWR VPWR _469_/X sky130_fd_sc_hd__dlymetal6s2s_1
XFILLER_2_105 VGND VGND VPWR VPWR sky130_fd_sc_hd__decap_4
XFILLER_2_116 VGND VGND VPWR VPWR sky130_fd_sc_hd__decap_4
XFILLER_2_149 VGND VGND VPWR VPWR sky130_fd_sc_hd__decap_4
X_323_ _417_/A VGND VGND VPWR VPWR _448_/B sky130_fd_sc_hd__inv_2
XFILLER_1_160 VGND VGND VPWR VPWR sky130_fd_sc_hd__decap_4
XFILLER_27_3 VGND VGND VPWR VPWR sky130_fd_sc_hd__decap_4
XFILLER_19_145 VGND VGND VPWR VPWR sky130_fd_sc_hd__decap_6
XFILLER_6_29 VGND VGND VPWR VPWR sky130_fd_sc_hd__decap_6
XFILLER_25_159 VGND VGND VPWR VPWR sky130_fd_sc_hd__decap_4
XFILLER_25_137 VGND VGND VPWR VPWR sky130_fd_sc_hd__decap_8
XFILLER_25_104 VGND VGND VPWR VPWR sky130_fd_sc_hd__decap_8
XFILLER_15_49 VGND VGND VPWR VPWR sky130_fd_sc_hd__decap_6
Xoutput26 _635_/Y VGND VGND VPWR VPWR M[3] sky130_fd_sc_hd__clkbuf_2
XFILLER_16_104 VGND VGND VPWR VPWR sky130_fd_sc_hd__decap_8
X_571_ _381_/B _469_/X _569_/A _569_/Y _570_/X VGND VGND VPWR VPWR _572_/B sky130_fd_sc_hd__a32o_1
XTAP_129 VGND VPWR sky130_fd_sc_hd__tapvpwrvgnd_1
XTAP_118 VGND VPWR sky130_fd_sc_hd__tapvpwrvgnd_1
XFILLER_22_118 VGND VGND VPWR VPWR sky130_fd_sc_hd__decap_4
XFILLER_22_107 VGND VGND VPWR VPWR sky130_fd_sc_hd__decap_4
XFILLER_21_70 VGND VGND VPWR VPWR sky130_fd_sc_hd__decap_4
XTAP_107 VGND VPWR sky130_fd_sc_hd__tapvpwrvgnd_1
XPHY_1 VGND VGND VPWR VPWR sky130_fd_sc_hd__decap_3
X_554_ _554_/A _554_/B VGND VGND VPWR VPWR _554_/X sky130_fd_sc_hd__or2_1
X_623_ _621_/X _622_/X _621_/X _622_/X VGND VGND VPWR VPWR _623_/X sky130_fd_sc_hd__a2bb2o_1
X_485_ _485_/A _542_/D _542_/A _485_/D VGND VGND VPWR VPWR _486_/B sky130_fd_sc_hd__and4_1
X_399_ _374_/X _397_/X _350_/X _398_/X VGND VGND VPWR VPWR _426_/A sky130_fd_sc_hd__o22a_1
XFILLER_27_91 VGND VGND VPWR VPWR sky130_fd_sc_hd__decap_4
X_468_ _437_/X _438_/X _436_/X _439_/X VGND VGND VPWR VPWR _468_/X sky130_fd_sc_hd__o22a_1
XFILLER_4_95 VGND VGND VPWR VPWR sky130_fd_sc_hd__decap_6
X_606_ _606_/A VGND VGND VPWR VPWR _606_/Y sky130_fd_sc_hd__inv_2
X_537_ _570_/A _472_/B _535_/Y _535_/A _536_/Y VGND VGND VPWR VPWR _538_/A sky130_fd_sc_hd__o32a_1
XFILLER_23_49 VGND VGND VPWR VPWR sky130_fd_sc_hd__decap_6
X_322_ _322_/A VGND VGND VPWR VPWR _481_/A sky130_fd_sc_hd__clkbuf_2
XFILLER_2_139 VGND VGND VPWR VPWR sky130_fd_sc_hd__fill_1
XFILLER_13_82 VGND VGND VPWR VPWR sky130_fd_sc_hd__decap_4
XFILLER_1_150 VGND VGND VPWR VPWR sky130_fd_sc_hd__decap_6
XFILLER_24_70 VGND VGND VPWR VPWR sky130_fd_sc_hd__decap_12
XFILLER_20_17 VGND VGND VPWR VPWR sky130_fd_sc_hd__decap_4
XFILLER_1_52 VGND VGND VPWR VPWR sky130_fd_sc_hd__decap_4
XFILLER_10_72 VGND VGND VPWR VPWR sky130_fd_sc_hd__decap_4
XFILLER_19_124 VGND VGND VPWR VPWR sky130_fd_sc_hd__fill_1
Xoutput27 _373_/Y VGND VGND VPWR VPWR M[4] sky130_fd_sc_hd__clkbuf_2
XFILLER_25_149 VGND VGND VPWR VPWR sky130_fd_sc_hd__decap_4
XFILLER_16_127 VGND VGND VPWR VPWR sky130_fd_sc_hd__decap_4
XFILLER_15_28 VGND VGND VPWR VPWR sky130_fd_sc_hd__fill_2
X_570_ _570_/A _570_/B VGND VGND VPWR VPWR _570_/X sky130_fd_sc_hd__or2_1
XTAP_119 VGND VPWR sky130_fd_sc_hd__tapvpwrvgnd_1
XTAP_108 VGND VPWR sky130_fd_sc_hd__tapvpwrvgnd_1
XPHY_2 VGND VGND VPWR VPWR sky130_fd_sc_hd__decap_3
XFILLER_13_108 VGND VGND VPWR VPWR sky130_fd_sc_hd__decap_4
XFILLER_16_71 VGND VGND VPWR VPWR sky130_fd_sc_hd__decap_4
X_553_ _523_/X _524_/X _504_/X _525_/X VGND VGND VPWR VPWR _554_/B sky130_fd_sc_hd__o22a_1
XFILLER_12_130 VGND VGND VPWR VPWR sky130_fd_sc_hd__fill_1
X_622_ _627_/B _627_/D _622_/C VGND VGND VPWR VPWR _622_/X sky130_fd_sc_hd__or3_1
X_484_ _367_/C _563_/B _561_/A _519_/A VGND VGND VPWR VPWR _486_/A sky130_fd_sc_hd__o22a_1
XFILLER_12_29 VGND VGND VPWR VPWR sky130_fd_sc_hd__fill_1
X_398_ _374_/X _397_/X _374_/X _397_/X VGND VGND VPWR VPWR _398_/X sky130_fd_sc_hd__a2bb2o_1
X_467_ _465_/X _466_/X _465_/X _466_/X VGND VGND VPWR VPWR _467_/Y sky130_fd_sc_hd__a2bb2oi_1
X_605_ _556_/Y _602_/Y _557_/A _604_/X VGND VGND VPWR VPWR _606_/A sky130_fd_sc_hd__a31o_1
X_536_ _570_/A _585_/B VGND VGND VPWR VPWR _536_/Y sky130_fd_sc_hd__nor2_1
X_321_ _442_/A VGND VGND VPWR VPWR _322_/A sky130_fd_sc_hd__inv_2
XFILLER_9_19 VGND VGND VPWR VPWR sky130_fd_sc_hd__decap_12
X_519_ _519_/A _563_/B _519_/C VGND VGND VPWR VPWR _519_/X sky130_fd_sc_hd__or3_1
XFILLER_24_93 VGND VGND VPWR VPWR sky130_fd_sc_hd__fill_2
XFILLER_24_82 VGND VGND VPWR VPWR sky130_fd_sc_hd__fill_2
XFILLER_10_40 VGND VGND VPWR VPWR sky130_fd_sc_hd__decap_6
Xoutput28 _630_/X VGND VGND VPWR VPWR M[5] sky130_fd_sc_hd__clkbuf_2
Xoutput17 _631_/Y VGND VGND VPWR VPWR M[0] sky130_fd_sc_hd__clkbuf_2
XTAP_109 VGND VPWR sky130_fd_sc_hd__tapvpwrvgnd_1
XFILLER_26_17 VGND VGND VPWR VPWR sky130_fd_sc_hd__decap_8
XPHY_3 VGND VGND VPWR VPWR sky130_fd_sc_hd__decap_3
XFILLER_7_85 VGND VGND VPWR VPWR sky130_fd_sc_hd__decap_4
XFILLER_21_153 VGND VGND VPWR VPWR sky130_fd_sc_hd__fill_1
XFILLER_16_50 VGND VGND VPWR VPWR sky130_fd_sc_hd__decap_6
X_552_ _533_/X _551_/X _533_/X _551_/X VGND VGND VPWR VPWR _554_/A sky130_fd_sc_hd__a2bb2o_1
X_483_ _410_/C _386_/X _480_/Y _482_/X _480_/A VGND VGND VPWR VPWR _483_/X sky130_fd_sc_hd__a32o_1
X_621_ _591_/A _610_/A _611_/X _613_/X VGND VGND VPWR VPWR _621_/X sky130_fd_sc_hd__o22a_1
XFILLER_8_135 VGND VGND VPWR VPWR sky130_fd_sc_hd__decap_4
XFILLER_5_127 VGND VGND VPWR VPWR sky130_fd_sc_hd__fill_1
X_466_ _428_/X _430_/X _431_/X _432_/X VGND VGND VPWR VPWR _466_/X sky130_fd_sc_hd__o22a_1
X_397_ _384_/X _396_/X _384_/X _396_/X VGND VGND VPWR VPWR _397_/X sky130_fd_sc_hd__a2bb2o_1
X_604_ _556_/Y _602_/Y _557_/B _603_/Y VGND VGND VPWR VPWR _604_/X sky130_fd_sc_hd__a31o_1
X_535_ _535_/A VGND VGND VPWR VPWR _535_/Y sky130_fd_sc_hd__inv_2
XFILLER_23_18 VGND VGND VPWR VPWR sky130_fd_sc_hd__decap_4
XFILLER_4_64 VGND VGND VPWR VPWR sky130_fd_sc_hd__fill_2
X_320_ _452_/A VGND VGND VPWR VPWR _631_/A sky130_fd_sc_hd__buf_6
XFILLER_13_73 VGND VGND VPWR VPWR sky130_fd_sc_hd__decap_6
XFILLER_1_141 VGND VGND VPWR VPWR sky130_fd_sc_hd__decap_4
XFILLER_18_29 VGND VGND VPWR VPWR sky130_fd_sc_hd__decap_12
X_449_ _449_/A VGND VGND VPWR VPWR _519_/C sky130_fd_sc_hd__inv_2
X_518_ _381_/B _386_/X _515_/Y _517_/X _515_/A VGND VGND VPWR VPWR _518_/X sky130_fd_sc_hd__a32o_1
XFILLER_1_43 VGND VGND VPWR VPWR sky130_fd_sc_hd__fill_1
XFILLER_19_159 VGND VGND VPWR VPWR sky130_fd_sc_hd__decap_4
XFILLER_10_85 VGND VGND VPWR VPWR sky130_fd_sc_hd__decap_4
XFILLER_10_63 VGND VGND VPWR VPWR sky130_fd_sc_hd__decap_4
Xoutput18 _558_/X VGND VGND VPWR VPWR M[10] sky130_fd_sc_hd__clkbuf_2
XFILLER_25_3 VGND VGND VPWR VPWR sky130_fd_sc_hd__decap_12
Xoutput29 _433_/Y VGND VGND VPWR VPWR M[6] sky130_fd_sc_hd__clkbuf_2
XFILLER_24_162 VGND VGND VPWR VPWR sky130_fd_sc_hd__fill_2
XFILLER_15_140 VGND VGND VPWR VPWR sky130_fd_sc_hd__decap_8
XPHY_4 VGND VGND VPWR VPWR sky130_fd_sc_hd__decap_3
XFILLER_7_31 VGND VGND VPWR VPWR sky130_fd_sc_hd__decap_8
XFILLER_21_121 VGND VGND VPWR VPWR sky130_fd_sc_hd__decap_4
X_620_ _618_/Y _619_/Y _618_/Y _619_/Y VGND VGND VPWR VPWR _620_/X sky130_fd_sc_hd__a2bb2o_1
X_551_ _549_/X _550_/X _549_/X _550_/X VGND VGND VPWR VPWR _551_/X sky130_fd_sc_hd__a2bb2o_1
X_482_ _539_/A _563_/D VGND VGND VPWR VPWR _482_/X sky130_fd_sc_hd__or2_1
XFILLER_8_147 VGND VGND VPWR VPWR sky130_fd_sc_hd__decap_4
XFILLER_27_83 VGND VGND VPWR VPWR sky130_fd_sc_hd__fill_1
X_465_ _427_/A _464_/A _427_/Y _464_/Y VGND VGND VPWR VPWR _465_/X sky130_fd_sc_hd__a22o_1
X_396_ _386_/X _330_/A _392_/Y _395_/X _392_/A VGND VGND VPWR VPWR _396_/X sky130_fd_sc_hd__a32o_1
X_603_ _554_/X _579_/X _581_/B VGND VGND VPWR VPWR _603_/Y sky130_fd_sc_hd__o21ai_1
XFILLER_5_106 VGND VGND VPWR VPWR sky130_fd_sc_hd__decap_6
X_534_ _381_/B _386_/A _515_/Y _514_/B VGND VGND VPWR VPWR _535_/A sky130_fd_sc_hd__a31o_1
XFILLER_13_52 VGND VGND VPWR VPWR sky130_fd_sc_hd__decap_4
XFILLER_13_41 VGND VGND VPWR VPWR sky130_fd_sc_hd__decap_3
X_448_ _448_/A _448_/B VGND VGND VPWR VPWR _449_/A sky130_fd_sc_hd__or2_1
X_517_ _570_/A _584_/A VGND VGND VPWR VPWR _517_/X sky130_fd_sc_hd__or2_1
X_379_ _448_/B _516_/A _452_/A _544_/A VGND VGND VPWR VPWR _382_/A sky130_fd_sc_hd__o22a_1
XFILLER_1_11 VGND VGND VPWR VPWR sky130_fd_sc_hd__decap_4
XFILLER_27_160 VGND VGND VPWR VPWR sky130_fd_sc_hd__decap_4
XFILLER_10_97 VGND VGND VPWR VPWR sky130_fd_sc_hd__decap_4
XFILLER_18_160 VGND VGND VPWR VPWR sky130_fd_sc_hd__decap_4
XFILLER_18_3 VGND VGND VPWR VPWR sky130_fd_sc_hd__fill_2
XFILLER_24_141 VGND VGND VPWR VPWR sky130_fd_sc_hd__decap_4
Xoutput19 _583_/X VGND VGND VPWR VPWR M[11] sky130_fd_sc_hd__clkbuf_2
XFILLER_15_163 VGND VGND VPWR VPWR sky130_fd_sc_hd__fill_1
XPHY_5 VGND VGND VPWR VPWR sky130_fd_sc_hd__decap_3
XFILLER_7_21 VGND VGND VPWR VPWR sky130_fd_sc_hd__fill_2
XFILLER_16_85 VGND VGND VPWR VPWR sky130_fd_sc_hd__decap_4
XFILLER_12_155 VGND VGND VPWR VPWR sky130_fd_sc_hd__fill_1
XFILLER_8_159 VGND VGND VPWR VPWR sky130_fd_sc_hd__decap_4
X_481_ _481_/A VGND VGND VPWR VPWR _539_/A sky130_fd_sc_hd__buf_1
X_550_ _520_/X _521_/X _511_/X _522_/X VGND VGND VPWR VPWR _550_/X sky130_fd_sc_hd__o22a_1
XFILLER_27_95 VGND VGND VPWR VPWR sky130_fd_sc_hd__fill_1
X_464_ _464_/A VGND VGND VPWR VPWR _464_/Y sky130_fd_sc_hd__inv_2
X_602_ _602_/A VGND VGND VPWR VPWR _602_/Y sky130_fd_sc_hd__inv_2
X_533_ _539_/A _503_/A _506_/Y _509_/Y _510_/X VGND VGND VPWR VPWR _533_/X sky130_fd_sc_hd__o32a_1
X_395_ _584_/A _436_/A VGND VGND VPWR VPWR _395_/X sky130_fd_sc_hd__or2_1
X_378_ _378_/A VGND VGND VPWR VPWR _544_/A sky130_fd_sc_hd__dlymetal6s2s_1
X_447_ _544_/A _447_/B VGND VGND VPWR VPWR _447_/X sky130_fd_sc_hd__or2_1
X_516_ _516_/A VGND VGND VPWR VPWR _570_/A sky130_fd_sc_hd__buf_1
XFILLER_24_85 VGND VGND VPWR VPWR sky130_fd_sc_hd__decap_8
XFILLER_19_52 VGND VGND VPWR VPWR sky130_fd_sc_hd__decap_4
XFILLER_19_41 VGND VGND VPWR VPWR sky130_fd_sc_hd__decap_3
XFILLER_10_76 VGND VGND VPWR VPWR sky130_fd_sc_hd__fill_1
XFILLER_21_97 VGND VGND VPWR VPWR sky130_fd_sc_hd__decap_8
XFILLER_21_31 VGND VGND VPWR VPWR sky130_fd_sc_hd__decap_8
XPHY_6 VGND VGND VPWR VPWR sky130_fd_sc_hd__decap_3
XFILLER_7_55 VGND VGND VPWR VPWR sky130_fd_sc_hd__fill_1
XFILLER_21_145 VGND VGND VPWR VPWR sky130_fd_sc_hd__decap_8
XFILLER_16_97 VGND VGND VPWR VPWR sky130_fd_sc_hd__decap_4
XFILLER_12_101 VGND VGND VPWR VPWR sky130_fd_sc_hd__fill_1
X_480_ _480_/A VGND VGND VPWR VPWR _480_/Y sky130_fd_sc_hd__inv_2
XFILLER_27_52 VGND VGND VPWR VPWR sky130_fd_sc_hd__decap_4
X_601_ _601_/A VGND VGND VPWR VPWR _601_/Y sky130_fd_sc_hd__inv_2
XFILLER_27_85 VGND VGND VPWR VPWR sky130_fd_sc_hd__fill_1
X_463_ _406_/Y _462_/X _406_/Y _462_/X VGND VGND VPWR VPWR _464_/A sky130_fd_sc_hd__a2bb2o_1
X_532_ _527_/A _527_/B _498_/Y _527_/Y VGND VGND VPWR VPWR _557_/B sky130_fd_sc_hd__o2bb2a_1
X_394_ _563_/D VGND VGND VPWR VPWR _584_/A sky130_fd_sc_hd__dlymetal6s2s_1
XFILLER_4_56 VGND VGND VPWR VPWR sky130_fd_sc_hd__decap_8
XFILLER_4_163 VGND VGND VPWR VPWR sky130_fd_sc_hd__fill_1
X_446_ _410_/B _386_/X _444_/Y _445_/X _444_/A VGND VGND VPWR VPWR _446_/X sky130_fd_sc_hd__a32o_1
XFILLER_13_21 VGND VGND VPWR VPWR sky130_fd_sc_hd__decap_12
XFILLER_1_111 VGND VGND VPWR VPWR sky130_fd_sc_hd__fill_1
X_377_ _380_/A VGND VGND VPWR VPWR _378_/A sky130_fd_sc_hd__inv_2
X_515_ _515_/A VGND VGND VPWR VPWR _515_/Y sky130_fd_sc_hd__inv_2
X_429_ _350_/X _398_/X _350_/X _398_/X VGND VGND VPWR VPWR _432_/B sky130_fd_sc_hd__a2bb2o_1
XFILLER_1_57 VGND VGND VPWR VPWR sky130_fd_sc_hd__decap_6
Xinput1 A[0] VGND VGND VPWR VPWR _330_/A sky130_fd_sc_hd__buf_1
XFILLER_19_118 VGND VGND VPWR VPWR sky130_fd_sc_hd__decap_6
XFILLER_19_107 VGND VGND VPWR VPWR sky130_fd_sc_hd__decap_4
XTAP_90 VGND VPWR sky130_fd_sc_hd__tapvpwrvgnd_1
XFILLER_19_86 VGND VGND VPWR VPWR sky130_fd_sc_hd__decap_4
XFILLER_24_132 VGND VGND VPWR VPWR sky130_fd_sc_hd__decap_8
XFILLER_24_154 VGND VGND VPWR VPWR sky130_fd_sc_hd__decap_8
XFILLER_21_65 VGND VGND VPWR VPWR sky130_fd_sc_hd__fill_1
XPHY_7 VGND VGND VPWR VPWR sky130_fd_sc_hd__decap_3
XFILLER_23_3 VGND VGND VPWR VPWR sky130_fd_sc_hd__decap_6
XFILLER_7_78 VGND VGND VPWR VPWR sky130_fd_sc_hd__decap_4
XFILLER_12_124 VGND VGND VPWR VPWR sky130_fd_sc_hd__decap_6
XFILLER_8_106 VGND VGND VPWR VPWR sky130_fd_sc_hd__decap_4
XFILLER_8_139 VGND VGND VPWR VPWR sky130_fd_sc_hd__fill_1
X_531_ _531_/A _531_/B _531_/C VGND VGND VPWR VPWR _557_/A sky130_fd_sc_hd__nor3_1