* NGSPICE file created from dvsd_8216m3.ext - technology: sky130A

* Black-box entry subcircuit for sky130_fd_sc_hd__o22a_1 abstract view
.subckt sky130_fd_sc_hd__o22a_1 A1 A2 B1 B2 VGND VNB VPB VPWR X
.ends

* Black-box entry subcircuit for sky130_fd_sc_hd__fill_1 abstract view
.subckt sky130_fd_sc_hd__fill_1 VGND VNB VPB VPWR
.ends

* Black-box entry subcircuit for sky130_fd_sc_hd__a2bb2o_1 abstract view
.subckt sky130_fd_sc_hd__a2bb2o_1 A1_N A2_N B1 B2 VGND VNB VPB VPWR X
.ends

* Black-box entry subcircuit for sky130_fd_sc_hd__inv_2 abstract view
.subckt sky130_fd_sc_hd__inv_2 A VGND VNB VPB VPWR Y
.ends

* Black-box entry subcircuit for sky130_fd_sc_hd__decap_8 abstract view
.subckt sky130_fd_sc_hd__decap_8 VGND VNB VPB VPWR
.ends

* Black-box entry subcircuit for sky130_fd_sc_hd__decap_4 abstract view
.subckt sky130_fd_sc_hd__decap_4 VGND VNB VPB VPWR
.ends

* Black-box entry subcircuit for sky130_fd_sc_hd__decap_6 abstract view
.subckt sky130_fd_sc_hd__decap_6 VGND VNB VPB VPWR
.ends

* Black-box entry subcircuit for sky130_fd_sc_hd__clkbuf_2 abstract view
.subckt sky130_fd_sc_hd__clkbuf_2 A VGND VNB VPB VPWR X
.ends

* Black-box entry subcircuit for sky130_fd_sc_hd__tapvpwrvgnd_1 abstract view
.subckt sky130_fd_sc_hd__tapvpwrvgnd_1 VGND VPWR
.ends

* Black-box entry subcircuit for sky130_fd_sc_hd__a2bb2oi_1 abstract view
.subckt sky130_fd_sc_hd__a2bb2oi_1 A1_N A2_N B1 B2 VGND VNB VPB VPWR Y
.ends

* Black-box entry subcircuit for sky130_fd_sc_hd__or2_1 abstract view
.subckt sky130_fd_sc_hd__or2_1 A B VGND VNB VPB VPWR X
.ends

* Black-box entry subcircuit for sky130_fd_sc_hd__o32a_1 abstract view
.subckt sky130_fd_sc_hd__o32a_1 A1 A2 A3 B1 B2 VGND VNB VPB VPWR X
.ends

* Black-box entry subcircuit for sky130_fd_sc_hd__o2bb2a_1 abstract view
.subckt sky130_fd_sc_hd__o2bb2a_1 A1_N A2_N B1 B2 VGND VNB VPB VPWR X
.ends

* Black-box entry subcircuit for sky130_fd_sc_hd__buf_1 abstract view
.subckt sky130_fd_sc_hd__buf_1 A VGND VNB VPB VPWR X
.ends

* Black-box entry subcircuit for sky130_fd_sc_hd__nor2_1 abstract view
.subckt sky130_fd_sc_hd__nor2_1 A B VGND VNB VPB VPWR Y
.ends

* Black-box entry subcircuit for sky130_fd_sc_hd__decap_12 abstract view
.subckt sky130_fd_sc_hd__decap_12 VGND VNB VPB VPWR
.ends

* Black-box entry subcircuit for sky130_fd_sc_hd__fill_2 abstract view
.subckt sky130_fd_sc_hd__fill_2 VGND VNB VPB VPWR
.ends

* Black-box entry subcircuit for sky130_fd_sc_hd__a21oi_1 abstract view
.subckt sky130_fd_sc_hd__a21oi_1 A1 A2 B1 VGND VNB VPB VPWR Y
.ends

* Black-box entry subcircuit for sky130_fd_sc_hd__or4_2 abstract view
.subckt sky130_fd_sc_hd__or4_2 A B C D VGND VNB VPB VPWR X
.ends

* Black-box entry subcircuit for sky130_fd_sc_hd__a32o_1 abstract view
.subckt sky130_fd_sc_hd__a32o_1 A1 A2 A3 B1 B2 VGND VNB VPB VPWR X
.ends

* Black-box entry subcircuit for sky130_fd_sc_hd__dlymetal6s2s_1 abstract view
.subckt sky130_fd_sc_hd__dlymetal6s2s_1 A VGND VNB VPB VPWR X
.ends

* Black-box entry subcircuit for sky130_fd_sc_hd__and4_1 abstract view
.subckt sky130_fd_sc_hd__and4_1 A B C D VGND VNB VPB VPWR X
.ends

* Black-box entry subcircuit for sky130_fd_sc_hd__decap_3 abstract view
.subckt sky130_fd_sc_hd__decap_3 VGND VNB VPB VPWR
.ends

* Black-box entry subcircuit for sky130_fd_sc_hd__buf_6 abstract view
.subckt sky130_fd_sc_hd__buf_6 A VGND VNB VPB VPWR X
.ends

* Black-box entry subcircuit for sky130_fd_sc_hd__inv_4 abstract view
.subckt sky130_fd_sc_hd__inv_4 A VGND VNB VPB VPWR Y
.ends

* Black-box entry subcircuit for sky130_fd_sc_hd__nand2b_1 abstract view
.subckt sky130_fd_sc_hd__nand2b_1 A_N B VGND VNB VPB VPWR Y
.ends

* Black-box entry subcircuit for sky130_fd_sc_hd__o2bb2ai_2 abstract view
.subckt sky130_fd_sc_hd__o2bb2ai_2 A1_N A2_N B1 B2 VGND VNB VPB VPWR Y
.ends

* Black-box entry subcircuit for sky130_fd_sc_hd__o21ai_1 abstract view
.subckt sky130_fd_sc_hd__o21ai_1 A1 A2 B1 VGND VNB VPB VPWR Y
.ends

* Black-box entry subcircuit for sky130_fd_sc_hd__clkbuf_1 abstract view
.subckt sky130_fd_sc_hd__clkbuf_1 A VGND VNB VPB VPWR X
.ends

* Black-box entry subcircuit for sky130_fd_sc_hd__nand2_1 abstract view
.subckt sky130_fd_sc_hd__nand2_1 A B VGND VNB VPB VPWR Y
.ends

* Black-box entry subcircuit for sky130_fd_sc_hd__o2bb2ai_1 abstract view
.subckt sky130_fd_sc_hd__o2bb2ai_1 A1_N A2_N B1 B2 VGND VNB VPB VPWR Y
.ends

* Black-box entry subcircuit for sky130_fd_sc_hd__a31o_1 abstract view
.subckt sky130_fd_sc_hd__a31o_1 A1 A2 A3 B1 VGND VNB VPB VPWR X
.ends

* Black-box entry subcircuit for sky130_fd_sc_hd__a22o_1 abstract view
.subckt sky130_fd_sc_hd__a22o_1 A1 A2 B1 B2 VGND VNB VPB VPWR X
.ends

* Black-box entry subcircuit for sky130_fd_sc_hd__or2b_1 abstract view
.subckt sky130_fd_sc_hd__or2b_1 A B_N VGND VNB VPB VPWR X
.ends

* Black-box entry subcircuit for sky130_fd_sc_hd__o21a_1 abstract view
.subckt sky130_fd_sc_hd__o21a_1 A1 A2 B1 VGND VNB VPB VPWR X
.ends

* Black-box entry subcircuit for sky130_fd_sc_hd__or4_1 abstract view
.subckt sky130_fd_sc_hd__or4_1 A B C D VGND VNB VPB VPWR X
.ends

* Black-box entry subcircuit for sky130_fd_sc_hd__o21ba_1 abstract view
.subckt sky130_fd_sc_hd__o21ba_1 A1 A2 B1_N VGND VNB VPB VPWR X
.ends

* Black-box entry subcircuit for sky130_fd_sc_hd__nor2b_1 abstract view
.subckt sky130_fd_sc_hd__nor2b_1 A B_N VGND VNB VPB VPWR Y
.ends

* Black-box entry subcircuit for sky130_fd_sc_hd__a2bb2oi_2 abstract view
.subckt sky130_fd_sc_hd__a2bb2oi_2 A1_N A2_N B1 B2 VGND VNB VPB VPWR Y
.ends

.subckt dvsd_8216m3 VGND VPWR a[0] a[1] a[2] a[3] a[4] a[5] a[6] a[7] b[0] b[1] b[2]
+ b[3] b[4] b[5] b[6] b[7] m[0] m[10] m[11] m[12] m[13] m[14] m[15] m[1] m[2] m[3]
+ m[4] m[5] m[6] m[7] m[8] m[9]
X_501_ _495_/X _498_/X _489_/X _499_/X VGND VGND VPWR VPWR _501_/X sky130_fd_sc_hd__o22a_1
XFILLER_13_155 VGND VGND VPWR VPWR sky130_fd_sc_hd__fill_1
XFILLER_13_111 VGND VGND VPWR VPWR sky130_fd_sc_hd__fill_1
X_294_ _509_/A _524_/B _509_/C _528_/B VGND VGND VPWR VPWR _294_/X sky130_fd_sc_hd__o22a_1
X_363_ _352_/X _362_/X _352_/X _362_/X VGND VGND VPWR VPWR _363_/X sky130_fd_sc_hd__a2bb2o_1
X_432_ _432_/A VGND VGND VPWR VPWR _432_/Y sky130_fd_sc_hd__inv_2
XFILLER_12_43 VGND VGND VPWR VPWR sky130_fd_sc_hd__decap_8
XFILLER_12_32 VGND VGND VPWR VPWR sky130_fd_sc_hd__decap_4
X_415_ _401_/X _414_/X _401_/X _414_/X VGND VGND VPWR VPWR _415_/X sky130_fd_sc_hd__a2bb2o_1
XFILLER_6_129 VGND VGND VPWR VPWR sky130_fd_sc_hd__decap_4
X_346_ _346_/A VGND VGND VPWR VPWR _346_/Y sky130_fd_sc_hd__inv_2
X_277_ _550_/X _276_/X _550_/X _276_/X VGND VGND VPWR VPWR _277_/X sky130_fd_sc_hd__a2bb2o_1
XFILLER_5_140 VGND VGND VPWR VPWR sky130_fd_sc_hd__fill_1
X_329_ _293_/X _296_/Y _291_/X _297_/X VGND VGND VPWR VPWR _329_/X sky130_fd_sc_hd__o22a_1
XFILLER_0_57 VGND VGND VPWR VPWR sky130_fd_sc_hd__decap_4
XFILLER_0_24 VGND VGND VPWR VPWR sky130_fd_sc_hd__decap_4
XFILLER_0_13 VGND VGND VPWR VPWR sky130_fd_sc_hd__decap_4
XFILLER_9_22 VGND VGND VPWR VPWR sky130_fd_sc_hd__decap_4
XFILLER_9_33 VGND VGND VPWR VPWR sky130_fd_sc_hd__decap_8
XFILLER_9_88 VGND VGND VPWR VPWR sky130_fd_sc_hd__decap_4
XFILLER_13_3 VGND VGND VPWR VPWR sky130_fd_sc_hd__decap_6
XFILLER_15_87 VGND VGND VPWR VPWR sky130_fd_sc_hd__fill_1
Xoutput31 _366_/Y VGND VGND VPWR VPWR m[8] sky130_fd_sc_hd__clkbuf_2
Xoutput20 _454_/Y VGND VGND VPWR VPWR m[12] sky130_fd_sc_hd__clkbuf_2
XTAP_112 VGND VPWR sky130_fd_sc_hd__tapvpwrvgnd_1
XTAP_101 VGND VPWR sky130_fd_sc_hd__tapvpwrvgnd_1
X_500_ _489_/X _499_/X _489_/X _499_/X VGND VGND VPWR VPWR _500_/Y sky130_fd_sc_hd__a2bb2oi_1
XFILLER_13_134 VGND VGND VPWR VPWR sky130_fd_sc_hd__decap_8
X_293_ _538_/B _368_/A VGND VGND VPWR VPWR _293_/X sky130_fd_sc_hd__or2_1
X_431_ _430_/A _447_/A _429_/Y _429_/A _430_/Y VGND VGND VPWR VPWR _432_/A sky130_fd_sc_hd__o32a_1
XFILLER_3_24 VGND VGND VPWR VPWR sky130_fd_sc_hd__decap_4
X_362_ _358_/X _361_/X _358_/X _361_/X VGND VGND VPWR VPWR _362_/X sky130_fd_sc_hd__a2bb2o_1
XFILLER_6_108 VGND VGND VPWR VPWR sky130_fd_sc_hd__decap_4
X_276_ _269_/X _275_/X _269_/X _275_/X VGND VGND VPWR VPWR _276_/X sky130_fd_sc_hd__a2bb2o_1
X_414_ _402_/X _413_/X _402_/X _413_/X VGND VGND VPWR VPWR _414_/X sky130_fd_sc_hd__a2bb2o_1
XFILLER_5_152 VGND VGND VPWR VPWR sky130_fd_sc_hd__decap_4
X_345_ _343_/X _344_/X _343_/X _344_/X VGND VGND VPWR VPWR _346_/A sky130_fd_sc_hd__o2bb2a_1
XFILLER_23_10 VGND VGND VPWR VPWR sky130_fd_sc_hd__decap_4
X_328_ _318_/X _327_/X _318_/X _327_/X VGND VGND VPWR VPWR _328_/X sky130_fd_sc_hd__a2bb2o_1
XFILLER_0_47 VGND VGND VPWR VPWR sky130_fd_sc_hd__decap_8
XFILLER_0_36 VGND VGND VPWR VPWR sky130_fd_sc_hd__decap_4
XFILLER_2_155 VGND VGND VPWR VPWR sky130_fd_sc_hd__fill_1
XFILLER_9_78 VGND VGND VPWR VPWR sky130_fd_sc_hd__decap_6
XFILLER_18_54 VGND VGND VPWR VPWR sky130_fd_sc_hd__decap_4
XFILLER_20_99 VGND VGND VPWR VPWR sky130_fd_sc_hd__fill_1
XFILLER_6_24 VGND VGND VPWR VPWR sky130_fd_sc_hd__decap_4
XFILLER_6_46 VGND VGND VPWR VPWR sky130_fd_sc_hd__decap_4
Xoutput21 _467_/Y VGND VGND VPWR VPWR m[13] sky130_fd_sc_hd__clkbuf_2
Xoutput32 _395_/Y VGND VGND VPWR VPWR m[9] sky130_fd_sc_hd__clkbuf_2
XTAP_113 VGND VPWR sky130_fd_sc_hd__tapvpwrvgnd_1
XTAP_102 VGND VPWR sky130_fd_sc_hd__tapvpwrvgnd_1
X_292_ _536_/D VGND VGND VPWR VPWR _368_/A sky130_fd_sc_hd__buf_1
XFILLER_13_124 VGND VGND VPWR VPWR sky130_fd_sc_hd__fill_1
X_361_ _359_/X _360_/Y _359_/X _360_/Y VGND VGND VPWR VPWR _361_/X sky130_fd_sc_hd__a2bb2o_1
X_430_ _430_/A _447_/A VGND VGND VPWR VPWR _430_/Y sky130_fd_sc_hd__nor2_1
XFILLER_9_117 VGND VGND VPWR VPWR sky130_fd_sc_hd__decap_4
XFILLER_3_36 VGND VGND VPWR VPWR sky130_fd_sc_hd__decap_8
XFILLER_12_67 VGND VGND VPWR VPWR sky130_fd_sc_hd__fill_1
XFILLER_5_6 VGND VGND VPWR VPWR sky130_fd_sc_hd__decap_8
X_275_ _537_/B _274_/X _537_/B _274_/X VGND VGND VPWR VPWR _275_/X sky130_fd_sc_hd__a2bb2o_1
X_413_ _409_/X _412_/X _409_/X _412_/X VGND VGND VPWR VPWR _413_/X sky130_fd_sc_hd__a2bb2o_1
X_344_ _503_/A _524_/B VGND VGND VPWR VPWR _344_/X sky130_fd_sc_hd__or2_1
XFILLER_23_33 VGND VGND VPWR VPWR sky130_fd_sc_hd__decap_12
XFILLER_3_3 VGND VGND VPWR VPWR sky130_fd_sc_hd__decap_4
X_327_ _296_/B _326_/X _296_/B _326_/X VGND VGND VPWR VPWR _327_/X sky130_fd_sc_hd__a2bb2o_1
XFILLER_9_57 VGND VGND VPWR VPWR sky130_fd_sc_hd__decap_6
XFILLER_18_44 VGND VGND VPWR VPWR sky130_fd_sc_hd__fill_2
XFILLER_6_58 VGND VGND VPWR VPWR sky130_fd_sc_hd__decap_4
XFILLER_19_130 VGND VGND VPWR VPWR sky130_fd_sc_hd__fill_1
XFILLER_25_144 VGND VGND VPWR VPWR sky130_fd_sc_hd__decap_4
XFILLER_25_100 VGND VGND VPWR VPWR sky130_fd_sc_hd__decap_12
Xoutput22 _473_/Y VGND VGND VPWR VPWR m[14] sky130_fd_sc_hd__clkbuf_2
XFILLER_16_155 VGND VGND VPWR VPWR sky130_fd_sc_hd__fill_1
XFILLER_16_133 VGND VGND VPWR VPWR sky130_fd_sc_hd__decap_6
XFILLER_16_122 VGND VGND VPWR VPWR sky130_fd_sc_hd__decap_4
XFILLER_16_100 VGND VGND VPWR VPWR sky130_fd_sc_hd__decap_6
XTAP_114 VGND VPWR sky130_fd_sc_hd__tapvpwrvgnd_1
XTAP_103 VGND VPWR sky130_fd_sc_hd__tapvpwrvgnd_1
X_360_ _311_/Y _313_/Y _311_/B VGND VGND VPWR VPWR _360_/Y sky130_fd_sc_hd__a21oi_1
X_291_ _400_/A _504_/B VGND VGND VPWR VPWR _291_/X sky130_fd_sc_hd__or2_1
XFILLER_9_129 VGND VGND VPWR VPWR sky130_fd_sc_hd__decap_4
X_489_ _494_/C _489_/B _504_/A _494_/B VGND VGND VPWR VPWR _489_/X sky130_fd_sc_hd__or4_2
XFILLER_3_15 VGND VGND VPWR VPWR sky130_fd_sc_hd__decap_6
XFILLER_8_151 VGND VGND VPWR VPWR sky130_fd_sc_hd__decap_4
XFILLER_12_24 VGND VGND VPWR VPWR sky130_fd_sc_hd__decap_4
XFILLER_10_117 VGND VGND VPWR VPWR sky130_fd_sc_hd__fill_1
X_274_ _270_/X _273_/X _270_/X _273_/X VGND VGND VPWR VPWR _274_/X sky130_fd_sc_hd__a2bb2o_1
X_412_ _410_/X _411_/Y _410_/X _411_/Y VGND VGND VPWR VPWR _412_/X sky130_fd_sc_hd__a2bb2o_1
XFILLER_5_121 VGND VGND VPWR VPWR sky130_fd_sc_hd__decap_6
XFILLER_5_132 VGND VGND VPWR VPWR sky130_fd_sc_hd__decap_8
X_343_ _485_/A _525_/X _341_/Y _342_/X _404_/A VGND VGND VPWR VPWR _343_/X sky130_fd_sc_hd__a32o_1
XFILLER_4_80 VGND VGND VPWR VPWR sky130_fd_sc_hd__decap_4
XFILLER_2_113 VGND VGND VPWR VPWR sky130_fd_sc_hd__decap_4
XFILLER_2_124 VGND VGND VPWR VPWR sky130_fd_sc_hd__decap_8
X_326_ _324_/Y _325_/Y _324_/Y _325_/Y VGND VGND VPWR VPWR _326_/X sky130_fd_sc_hd__a2bb2o_1
X_309_ _373_/A _548_/A _489_/B _524_/A VGND VGND VPWR VPWR _311_/A sky130_fd_sc_hd__o22a_1
XFILLER_15_9 VGND VGND VPWR VPWR sky130_fd_sc_hd__fill_1
XFILLER_6_37 VGND VGND VPWR VPWR sky130_fd_sc_hd__decap_6
XFILLER_15_46 VGND VGND VPWR VPWR sky130_fd_sc_hd__fill_1
Xoutput23 _475_/Y VGND VGND VPWR VPWR m[15] sky130_fd_sc_hd__clkbuf_2
XTAP_115 VGND VPWR sky130_fd_sc_hd__tapvpwrvgnd_1
XTAP_104 VGND VPWR sky130_fd_sc_hd__tapvpwrvgnd_1
XFILLER_11_3 VGND VGND VPWR VPWR sky130_fd_sc_hd__decap_4
XFILLER_22_148 VGND VGND VPWR VPWR sky130_fd_sc_hd__decap_8
XFILLER_22_115 VGND VGND VPWR VPWR sky130_fd_sc_hd__fill_1
X_488_ _494_/C _489_/B _549_/A _494_/B VGND VGND VPWR VPWR _490_/A sky130_fd_sc_hd__o22a_1
X_290_ _507_/X VGND VGND VPWR VPWR _400_/A sky130_fd_sc_hd__dlymetal6s2s_1
XFILLER_12_14 VGND VGND VPWR VPWR sky130_fd_sc_hd__decap_6
X_273_ _273_/A _273_/B VGND VGND VPWR VPWR _273_/X sky130_fd_sc_hd__or2_1
X_342_ _509_/A _342_/B VGND VGND VPWR VPWR _342_/X sky130_fd_sc_hd__or2_1
XFILLER_5_111 VGND VGND VPWR VPWR sky130_fd_sc_hd__fill_1
XFILLER_5_144 VGND VGND VPWR VPWR sky130_fd_sc_hd__decap_4
X_411_ _372_/Y _373_/Y _372_/B VGND VGND VPWR VPWR _411_/Y sky130_fd_sc_hd__a21oi_1
XFILLER_23_57 VGND VGND VPWR VPWR sky130_fd_sc_hd__decap_8
XFILLER_23_24 VGND VGND VPWR VPWR sky130_fd_sc_hd__fill_1
XFILLER_2_136 VGND VGND VPWR VPWR sky130_fd_sc_hd__decap_4
XFILLER_13_90 VGND VGND VPWR VPWR sky130_fd_sc_hd__fill_1
X_325_ _538_/B _524_/B VGND VGND VPWR VPWR _325_/Y sky130_fd_sc_hd__nor2_1
XFILLER_9_15 VGND VGND VPWR VPWR sky130_fd_sc_hd__decap_4
X_308_ _494_/D VGND VGND VPWR VPWR _373_/A sky130_fd_sc_hd__dlymetal6s2s_1
XFILLER_20_69 VGND VGND VPWR VPWR sky130_fd_sc_hd__decap_4
XFILLER_10_80 VGND VGND VPWR VPWR sky130_fd_sc_hd__decap_4
XFILLER_25_135 VGND VGND VPWR VPWR sky130_fd_sc_hd__decap_4
XFILLER_15_25 VGND VGND VPWR VPWR sky130_fd_sc_hd__fill_1
Xoutput24 _490_/Y VGND VGND VPWR VPWR m[1] sky130_fd_sc_hd__clkbuf_2
XTAP_116 VGND VPWR sky130_fd_sc_hd__tapvpwrvgnd_1
XTAP_105 VGND VPWR sky130_fd_sc_hd__tapvpwrvgnd_1
XFILLER_16_113 VGND VGND VPWR VPWR sky130_fd_sc_hd__decap_4
XFILLER_22_138 VGND VGND VPWR VPWR sky130_fd_sc_hd__fill_2
XFILLER_13_105 VGND VGND VPWR VPWR sky130_fd_sc_hd__decap_6
X_487_ _509_/A VGND VGND VPWR VPWR _494_/B sky130_fd_sc_hd__buf_1
X_272_ _485_/A _534_/A _477_/A _522_/A VGND VGND VPWR VPWR _273_/B sky130_fd_sc_hd__and4_1
XFILLER_12_59 VGND VGND VPWR VPWR sky130_fd_sc_hd__decap_8
X_410_ _354_/X _384_/X _383_/Y _385_/X VGND VGND VPWR VPWR _410_/X sky130_fd_sc_hd__o22a_1
X_341_ _404_/A VGND VGND VPWR VPWR _341_/Y sky130_fd_sc_hd__inv_2
X_539_ _537_/Y _538_/X _537_/Y _538_/X VGND VGND VPWR VPWR _539_/X sky130_fd_sc_hd__a2bb2o_1
XFILLER_4_60 VGND VGND VPWR VPWR sky130_fd_sc_hd__decap_4
X_324_ _324_/A _324_/B VGND VGND VPWR VPWR _324_/Y sky130_fd_sc_hd__nor2_1
XFILLER_18_58 VGND VGND VPWR VPWR sky130_fd_sc_hd__fill_1
XFILLER_18_36 VGND VGND VPWR VPWR sky130_fd_sc_hd__decap_8
X_307_ _289_/X _301_/X _288_/X _302_/X VGND VGND VPWR VPWR _307_/X sky130_fd_sc_hd__o22a_1
XFILLER_20_26 VGND VGND VPWR VPWR sky130_fd_sc_hd__fill_2
XFILLER_19_155 VGND VGND VPWR VPWR sky130_fd_sc_hd__fill_1
XFILLER_19_111 VGND VGND VPWR VPWR sky130_fd_sc_hd__fill_1
XFILLER_6_17 VGND VGND VPWR VPWR sky130_fd_sc_hd__decap_4
Xoutput25 _500_/Y VGND VGND VPWR VPWR m[2] sky130_fd_sc_hd__clkbuf_2
XTAP_117 VGND VPWR sky130_fd_sc_hd__tapvpwrvgnd_1
XTAP_106 VGND VPWR sky130_fd_sc_hd__tapvpwrvgnd_1
XPHY_0 VGND VGND VPWR VPWR sky130_fd_sc_hd__decap_3
XFILLER_7_82 VGND VGND VPWR VPWR sky130_fd_sc_hd__decap_6
XFILLER_16_80 VGND VGND VPWR VPWR sky130_fd_sc_hd__decap_4
X_486_ _536_/A VGND VGND VPWR VPWR _509_/A sky130_fd_sc_hd__buf_6
X_538_ _538_/A _538_/B VGND VGND VPWR VPWR _538_/X sky130_fd_sc_hd__or2_1
X_271_ _536_/A _536_/D _536_/C _523_/A VGND VGND VPWR VPWR _273_/A sky130_fd_sc_hd__o22a_1
X_340_ _497_/A _528_/B VGND VGND VPWR VPWR _404_/A sky130_fd_sc_hd__or2_1
XFILLER_5_113 VGND VGND VPWR VPWR sky130_fd_sc_hd__fill_1
X_469_ _469_/A VGND VGND VPWR VPWR _469_/Y sky130_fd_sc_hd__inv_2
X_323_ _485_/A _527_/A _477_/A _525_/X VGND VGND VPWR VPWR _324_/B sky130_fd_sc_hd__and4_1
XFILLER_2_105 VGND VGND VPWR VPWR sky130_fd_sc_hd__fill_1
XFILLER_2_149 VGND VGND VPWR VPWR sky130_fd_sc_hd__decap_6
XFILLER_3_7 VGND VGND VPWR VPWR sky130_fd_sc_hd__fill_1
XFILLER_18_15 VGND VGND VPWR VPWR sky130_fd_sc_hd__decap_12
X_306_ _282_/X _303_/X _281_/X _304_/X VGND VGND VPWR VPWR _306_/X sky130_fd_sc_hd__o22a_1
XFILLER_20_49 VGND VGND VPWR VPWR sky130_fd_sc_hd__decap_12
XFILLER_1_84 VGND VGND VPWR VPWR sky130_fd_sc_hd__decap_4
XFILLER_1_40 VGND VGND VPWR VPWR sky130_fd_sc_hd__decap_4
XFILLER_19_91 VGND VGND VPWR VPWR sky130_fd_sc_hd__decap_4
XFILLER_13_9 VGND VGND VPWR VPWR sky130_fd_sc_hd__fill_1
XFILLER_10_93 VGND VGND VPWR VPWR sky130_fd_sc_hd__decap_6
Xoutput26 _514_/Y VGND VGND VPWR VPWR m[3] sky130_fd_sc_hd__clkbuf_2
XTAP_118 VGND VPWR sky130_fd_sc_hd__tapvpwrvgnd_1
XFILLER_21_81 VGND VGND VPWR VPWR sky130_fd_sc_hd__decap_8
XTAP_107 VGND VPWR sky130_fd_sc_hd__tapvpwrvgnd_1
XPHY_1 VGND VGND VPWR VPWR sky130_fd_sc_hd__decap_3
X_485_ _485_/A VGND VGND VPWR VPWR _536_/A sky130_fd_sc_hd__inv_4
XFILLER_8_133 VGND VGND VPWR VPWR sky130_fd_sc_hd__decap_6
XFILLER_8_155 VGND VGND VPWR VPWR sky130_fd_sc_hd__fill_1
X_270_ _497_/A _507_/X VGND VGND VPWR VPWR _270_/X sky130_fd_sc_hd__or2_1
XFILLER_5_103 VGND VGND VPWR VPWR sky130_fd_sc_hd__decap_8
X_537_ _535_/X _537_/B VGND VGND VPWR VPWR _537_/Y sky130_fd_sc_hd__nand2b_1
X_399_ _399_/A _399_/B VGND VGND VPWR VPWR _399_/Y sky130_fd_sc_hd__nor2_1
X_468_ _470_/A _460_/B _459_/A _462_/Y _463_/X VGND VGND VPWR VPWR _469_/A sky130_fd_sc_hd__o32a_1
XFILLER_4_73 VGND VGND VPWR VPWR sky130_fd_sc_hd__decap_4
XFILLER_4_95 VGND VGND VPWR VPWR sky130_fd_sc_hd__decap_4
X_322_ _509_/A _463_/A _509_/C _456_/A VGND VGND VPWR VPWR _324_/A sky130_fd_sc_hd__o22a_1
XFILLER_13_82 VGND VGND VPWR VPWR sky130_fd_sc_hd__decap_8
XFILLER_13_71 VGND VGND VPWR VPWR sky130_fd_sc_hd__fill_1
XFILLER_18_27 VGND VGND VPWR VPWR sky130_fd_sc_hd__fill_1
X_305_ _281_/X _304_/X _281_/X _304_/X VGND VGND VPWR VPWR _305_/Y sky130_fd_sc_hd__a2bb2oi_1
XFILLER_1_96 VGND VGND VPWR VPWR sky130_fd_sc_hd__decap_4
XFILLER_1_63 VGND VGND VPWR VPWR sky130_fd_sc_hd__decap_4
XFILLER_1_52 VGND VGND VPWR VPWR sky130_fd_sc_hd__decap_4
XFILLER_25_127 VGND VGND VPWR VPWR sky130_fd_sc_hd__decap_4
XFILLER_25_116 VGND VGND VPWR VPWR sky130_fd_sc_hd__decap_8
Xoutput27 _544_/Y VGND VGND VPWR VPWR m[4] sky130_fd_sc_hd__clkbuf_2
XFILLER_16_149 VGND VGND VPWR VPWR sky130_fd_sc_hd__decap_6
XFILLER_15_17 VGND VGND VPWR VPWR sky130_fd_sc_hd__decap_8
XTAP_119 VGND VPWR sky130_fd_sc_hd__tapvpwrvgnd_1
XFILLER_22_119 VGND VGND VPWR VPWR sky130_fd_sc_hd__decap_4
XTAP_108 VGND VPWR sky130_fd_sc_hd__tapvpwrvgnd_1
XPHY_2 VGND VGND VPWR VPWR sky130_fd_sc_hd__decap_3
XFILLER_21_152 VGND VGND VPWR VPWR sky130_fd_sc_hd__decap_4
X_484_ _504_/A VGND VGND VPWR VPWR _549_/A sky130_fd_sc_hd__buf_1
X_536_ _536_/A _536_/B _536_/C _536_/D VGND VGND VPWR VPWR _537_/B sky130_fd_sc_hd__or4_2
X_467_ _465_/Y _466_/X _465_/Y _466_/X VGND VGND VPWR VPWR _467_/Y sky130_fd_sc_hd__a2bb2oi_1
XFILLER_4_41 VGND VGND VPWR VPWR sky130_fd_sc_hd__decap_4
XFILLER_4_85 VGND VGND VPWR VPWR sky130_fd_sc_hd__decap_3
X_398_ _534_/A _521_/A _398_/C _522_/A VGND VGND VPWR VPWR _399_/B sky130_fd_sc_hd__and4_1
X_321_ _342_/B VGND VGND VPWR VPWR _456_/A sky130_fd_sc_hd__dlymetal6s2s_1
X_519_ _519_/A VGND VGND VPWR VPWR _520_/B sky130_fd_sc_hd__dlymetal6s2s_1
X_304_ _282_/X _303_/X _282_/X _303_/X VGND VGND VPWR VPWR _304_/X sky130_fd_sc_hd__a2bb2o_1
XFILLER_20_29 VGND VGND VPWR VPWR sky130_fd_sc_hd__decap_12
XFILLER_20_18 VGND VGND VPWR VPWR sky130_fd_sc_hd__decap_8
XFILLER_1_75 VGND VGND VPWR VPWR sky130_fd_sc_hd__decap_4
XFILLER_10_62 VGND VGND VPWR VPWR sky130_fd_sc_hd__decap_4
XFILLER_19_103 VGND VGND VPWR VPWR sky130_fd_sc_hd__decap_8
XFILLER_25_139 VGND VGND VPWR VPWR sky130_fd_sc_hd__fill_1
Xoutput28 _280_/Y VGND VGND VPWR VPWR m[5] sky130_fd_sc_hd__clkbuf_2
XFILLER_15_29 VGND VGND VPWR VPWR sky130_fd_sc_hd__decap_4
Xoutput17 _476_/Y VGND VGND VPWR VPWR m[0] sky130_fd_sc_hd__clkbuf_2
XTAP_109 VGND VPWR sky130_fd_sc_hd__tapvpwrvgnd_1
XFILLER_21_72 VGND VGND VPWR VPWR sky130_fd_sc_hd__fill_1
XFILLER_16_139 VGND VGND VPWR VPWR sky130_fd_sc_hd__fill_1
XFILLER_16_106 VGND VGND VPWR VPWR sky130_fd_sc_hd__fill_1
XFILLER_22_109 VGND VGND VPWR VPWR sky130_fd_sc_hd__decap_6
XPHY_3 VGND VGND VPWR VPWR sky130_fd_sc_hd__decap_3
XFILLER_7_52 VGND VGND VPWR VPWR sky130_fd_sc_hd__decap_4
XFILLER_7_96 VGND VGND VPWR VPWR sky130_fd_sc_hd__decap_6
X_483_ _483_/A VGND VGND VPWR VPWR _504_/A sky130_fd_sc_hd__inv_2
XFILLER_16_94 VGND VGND VPWR VPWR sky130_fd_sc_hd__fill_1
XFILLER_12_131 VGND VGND VPWR VPWR sky130_fd_sc_hd__decap_8
X_535_ _536_/A _536_/B _536_/C _536_/D VGND VGND VPWR VPWR _535_/X sky130_fd_sc_hd__o22a_1
X_466_ _451_/A _450_/Y _452_/X _453_/X VGND VGND VPWR VPWR _466_/X sky130_fd_sc_hd__o22a_1
X_397_ _430_/A _369_/A _549_/B _448_/A VGND VGND VPWR VPWR _399_/A sky130_fd_sc_hd__o22a_1
XFILLER_23_18 VGND VGND VPWR VPWR sky130_fd_sc_hd__decap_6
XFILLER_4_53 VGND VGND VPWR VPWR sky130_fd_sc_hd__decap_4
XFILLER_4_64 VGND VGND VPWR VPWR sky130_fd_sc_hd__fill_1
X_320_ _525_/A VGND VGND VPWR VPWR _342_/B sky130_fd_sc_hd__inv_2
X_518_ _518_/A VGND VGND VPWR VPWR _519_/A sky130_fd_sc_hd__buf_1
X_449_ _448_/A _447_/A _446_/Y _446_/A _448_/Y VGND VGND VPWR VPWR _450_/A sky130_fd_sc_hd__o32a_1
XFILLER_24_83 VGND VGND VPWR VPWR sky130_fd_sc_hd__fill_1
X_303_ _288_/X _302_/X _288_/X _302_/X VGND VGND VPWR VPWR _303_/X sky130_fd_sc_hd__a2bb2o_1
XFILLER_1_32 VGND VGND VPWR VPWR sky130_fd_sc_hd__decap_4
XFILLER_1_21 VGND VGND VPWR VPWR sky130_fd_sc_hd__decap_4
XFILLER_19_137 VGND VGND VPWR VPWR sky130_fd_sc_hd__decap_4
XFILLER_19_126 VGND VGND VPWR VPWR sky130_fd_sc_hd__decap_4
XFILLER_10_52 VGND VGND VPWR VPWR sky130_fd_sc_hd__fill_2
XFILLER_10_85 VGND VGND VPWR VPWR sky130_fd_sc_hd__decap_4
Xoutput18 _418_/Y VGND VGND VPWR VPWR m[10] sky130_fd_sc_hd__clkbuf_2
Xoutput29 _305_/Y VGND VGND VPWR VPWR m[6] sky130_fd_sc_hd__clkbuf_2
XFILLER_24_151 VGND VGND VPWR VPWR sky130_fd_sc_hd__decap_4
XFILLER_15_140 VGND VGND VPWR VPWR sky130_fd_sc_hd__decap_4
XPHY_4 VGND VGND VPWR VPWR sky130_fd_sc_hd__decap_3
X_551_ _494_/D _504_/B _505_/A _519_/A VGND VGND VPWR VPWR _551_/X sky130_fd_sc_hd__o22a_1
X_482_ _505_/A VGND VGND VPWR VPWR _489_/B sky130_fd_sc_hd__buf_1
XFILLER_12_154 VGND VGND VPWR VPWR sky130_fd_sc_hd__fill_2
XFILLER_12_110 VGND VGND VPWR VPWR sky130_fd_sc_hd__decap_4
XFILLER_8_103 VGND VGND VPWR VPWR sky130_fd_sc_hd__decap_4
X_534_ _534_/A VGND VGND VPWR VPWR _536_/D sky130_fd_sc_hd__inv_2
X_465_ _455_/X _464_/X _455_/X _464_/X VGND VGND VPWR VPWR _465_/Y sky130_fd_sc_hd__o2bb2ai_2
X_396_ _375_/X _390_/X _374_/X _391_/X VGND VGND VPWR VPWR _396_/X sky130_fd_sc_hd__o22a_1
XFILLER_4_10 VGND VGND VPWR VPWR sky130_fd_sc_hd__decap_4
X_517_ _517_/A VGND VGND VPWR VPWR _518_/A sky130_fd_sc_hd__inv_2
X_448_ _448_/A _470_/B VGND VGND VPWR VPWR _448_/Y sky130_fd_sc_hd__nor2_1
X_379_ _503_/A _463_/A VGND VGND VPWR VPWR _379_/X sky130_fd_sc_hd__or2_1
X_302_ _289_/X _301_/X _289_/X _301_/X VGND VGND VPWR VPWR _302_/X sky130_fd_sc_hd__a2bb2o_1
XFILLER_1_44 VGND VGND VPWR VPWR sky130_fd_sc_hd__fill_1
XFILLER_19_149 VGND VGND VPWR VPWR sky130_fd_sc_hd__decap_6
XFILLER_19_95 VGND VGND VPWR VPWR sky130_fd_sc_hd__fill_1
XFILLER_19_62 VGND VGND VPWR VPWR sky130_fd_sc_hd__decap_6
XFILLER_18_3 VGND VGND VPWR VPWR sky130_fd_sc_hd__decap_12
XFILLER_24_141 VGND VGND VPWR VPWR sky130_fd_sc_hd__decap_3
XFILLER_21_96 VGND VGND VPWR VPWR sky130_fd_sc_hd__decap_4
Xoutput19 _436_/Y VGND VGND VPWR VPWR m[11] sky130_fd_sc_hd__clkbuf_2
XPHY_5 VGND VGND VPWR VPWR sky130_fd_sc_hd__decap_3
XFILLER_7_32 VGND VGND VPWR VPWR sky130_fd_sc_hd__decap_4
XFILLER_21_144 VGND VGND VPWR VPWR sky130_fd_sc_hd__decap_4
XFILLER_21_111 VGND VGND VPWR VPWR sky130_fd_sc_hd__fill_1
X_481_ _481_/A VGND VGND VPWR VPWR _505_/A sky130_fd_sc_hd__buf_1
X_550_ _537_/Y _538_/X _533_/X _539_/X VGND VGND VPWR VPWR _550_/X sky130_fd_sc_hd__o22a_1
XFILLER_16_52 VGND VGND VPWR VPWR sky130_fd_sc_hd__decap_6
XFILLER_8_115 VGND VGND VPWR VPWR sky130_fd_sc_hd__decap_4
XFILLER_8_126 VGND VGND VPWR VPWR sky130_fd_sc_hd__decap_4
X_533_ _533_/A VGND VGND VPWR VPWR _533_/X sky130_fd_sc_hd__buf_1
X_464_ _527_/A _312_/A _462_/A _462_/Y _463_/X VGND VGND VPWR VPWR _464_/X sky130_fd_sc_hd__a32o_1
XFILLER_4_22 VGND VGND VPWR VPWR sky130_fd_sc_hd__decap_6
XFILLER_4_151 VGND VGND VPWR VPWR sky130_fd_sc_hd__decap_4
X_395_ _393_/Y _394_/X _393_/Y _394_/X VGND VGND VPWR VPWR _395_/Y sky130_fd_sc_hd__a2bb2oi_1
X_516_ _505_/X _510_/Y _504_/X _511_/X VGND VGND VPWR VPWR _516_/X sky130_fd_sc_hd__o22a_1
XFILLER_1_132 VGND VGND VPWR VPWR sky130_fd_sc_hd__decap_4
X_447_ _447_/A VGND VGND VPWR VPWR _470_/B sky130_fd_sc_hd__clkbuf_2
X_378_ _525_/X VGND VGND VPWR VPWR _378_/X sky130_fd_sc_hd__dlymetal6s2s_1
XFILLER_24_85 VGND VGND VPWR VPWR sky130_fd_sc_hd__decap_4
X_301_ _298_/X _300_/X _298_/X _300_/X VGND VGND VPWR VPWR _301_/X sky130_fd_sc_hd__a2bb2o_1
XFILLER_19_85 VGND VGND VPWR VPWR sky130_fd_sc_hd__fill_1
XFILLER_19_52 VGND VGND VPWR VPWR sky130_fd_sc_hd__decap_4
XFILLER_10_32 VGND VGND VPWR VPWR sky130_fd_sc_hd__decap_4
XPHY_6 VGND VGND VPWR VPWR sky130_fd_sc_hd__decap_3
XFILLER_7_22 VGND VGND VPWR VPWR sky130_fd_sc_hd__fill_2
XFILLER_7_44 VGND VGND VPWR VPWR sky130_fd_sc_hd__decap_4
XFILLER_7_88 VGND VGND VPWR VPWR sky130_fd_sc_hd__fill_1
XFILLER_21_123 VGND VGND VPWR VPWR sky130_fd_sc_hd__decap_4
X_480_ _480_/A VGND VGND VPWR VPWR _481_/A sky130_fd_sc_hd__inv_2
X_394_ _338_/X _364_/X _337_/X _365_/X VGND VGND VPWR VPWR _394_/X sky130_fd_sc_hd__o22a_1
X_532_ _531_/A _531_/B _531_/Y VGND VGND VPWR VPWR _533_/A sky130_fd_sc_hd__o21ai_1
X_463_ _463_/A _470_/B VGND VGND VPWR VPWR _463_/X sky130_fd_sc_hd__or2_1
XFILLER_4_141 VGND VGND VPWR VPWR sky130_fd_sc_hd__fill_2
X_515_ _494_/X _512_/X _501_/X _513_/X VGND VGND VPWR VPWR _515_/X sky130_fd_sc_hd__o22a_1
XFILLER_13_98 VGND VGND VPWR VPWR sky130_fd_sc_hd__decap_4
X_446_ _446_/A VGND VGND VPWR VPWR _446_/Y sky130_fd_sc_hd__inv_2
X_377_ _520_/B _448_/A VGND VGND VPWR VPWR _382_/A sky130_fd_sc_hd__nor2_1
XFILLER_8_3 VGND VGND VPWR VPWR sky130_fd_sc_hd__decap_4
X_300_ _268_/X _299_/X _268_/X _299_/X VGND VGND VPWR VPWR _300_/X sky130_fd_sc_hd__a2bb2o_1
XFILLER_1_79 VGND VGND VPWR VPWR sky130_fd_sc_hd__fill_1
X_429_ _429_/A VGND VGND VPWR VPWR _429_/Y sky130_fd_sc_hd__inv_2
XFILLER_1_57 VGND VGND VPWR VPWR sky130_fd_sc_hd__fill_2
XFILLER_1_13 VGND VGND VPWR VPWR sky130_fd_sc_hd__decap_4
Xinput1 a[0] VGND VGND VPWR VPWR _483_/A sky130_fd_sc_hd__clkbuf_1
XTAP_90 VGND VPWR sky130_fd_sc_hd__tapvpwrvgnd_1
XFILLER_10_44 VGND VGND VPWR VPWR sky130_fd_sc_hd__decap_8
XFILLER_24_110 VGND VGND VPWR VPWR sky130_fd_sc_hd__decap_4
XFILLER_15_132 VGND VGND VPWR VPWR sky130_fd_sc_hd__decap_4
XPHY_7 VGND VGND VPWR VPWR sky130_fd_sc_hd__decap_3
XFILLER_21_135 VGND VGND VPWR VPWR sky130_fd_sc_hd__decap_6
XFILLER_12_146 VGND VGND VPWR VPWR sky130_fd_sc_hd__decap_8
XFILLER_8_139 VGND VGND VPWR VPWR sky130_fd_sc_hd__fill_1
X_531_ _531_/A _531_/B VGND VGND VPWR VPWR _531_/Y sky130_fd_sc_hd__nand2_1
X_393_ _367_/X _392_/X _367_/X _392_/X VGND VGND VPWR VPWR _393_/Y sky130_fd_sc_hd__o2bb2ai_1
X_462_ _462_/A VGND VGND VPWR VPWR _462_/Y sky130_fd_sc_hd__inv_2
X_514_ _501_/X _513_/X _501_/X _513_/X VGND VGND VPWR VPWR _514_/Y sky130_fd_sc_hd__a2bb2oi_1
XFILLER_13_55 VGND VGND VPWR VPWR sky130_fd_sc_hd__fill_1
X_445_ _438_/X _444_/X _438_/X _444_/X VGND VGND VPWR VPWR _446_/A sky130_fd_sc_hd__o2bb2a_1
X_376_ _524_/B VGND VGND VPWR VPWR _448_/A sky130_fd_sc_hd__buf_1
XFILLER_24_98 VGND VGND VPWR VPWR sky130_fd_sc_hd__decap_4
X_359_ _296_/B _326_/X _318_/X _327_/X VGND VGND VPWR VPWR _359_/X sky130_fd_sc_hd__o22a_1
X_428_ _421_/X _427_/X _421_/X _427_/X VGND VGND VPWR VPWR _429_/A sky130_fd_sc_hd__o2bb2a_1
Xinput2 a[1] VGND VGND VPWR VPWR _480_/A sky130_fd_sc_hd__dlymetal6s2s_1
XTAP_91 VGND VPWR sky130_fd_sc_hd__tapvpwrvgnd_1
XFILLER_10_12 VGND VGND VPWR VPWR sky130_fd_sc_hd__decap_4
XTAP_80 VGND VPWR sky130_fd_sc_hd__tapvpwrvgnd_1
XFILLER_19_119 VGND VGND VPWR VPWR sky130_fd_sc_hd__decap_4
XFILLER_18_152 VGND VGND VPWR VPWR sky130_fd_sc_hd__decap_4
XFILLER_18_141 VGND VGND VPWR VPWR sky130_fd_sc_hd__decap_4
XFILLER_24_155 VGND VGND VPWR VPWR sky130_fd_sc_hd__fill_1
XFILLER_21_66 VGND VGND VPWR VPWR sky130_fd_sc_hd__decap_6
XFILLER_21_11 VGND VGND VPWR VPWR sky130_fd_sc_hd__decap_4
XFILLER_16_3 VGND VGND VPWR VPWR sky130_fd_sc_hd__fill_1
XFILLER_15_111 VGND VGND VPWR VPWR sky130_fd_sc_hd__fill_1
XPHY_8 VGND VGND VPWR VPWR sky130_fd_sc_hd__decap_3
XFILLER_7_57 VGND VGND VPWR VPWR sky130_fd_sc_hd__decap_4
XFILLER_7_68 VGND VGND VPWR VPWR sky130_fd_sc_hd__decap_6
XFILLER_16_88 VGND VGND VPWR VPWR sky130_fd_sc_hd__decap_6
XFILLER_16_66 VGND VGND VPWR VPWR sky130_fd_sc_hd__decap_4
XFILLER_12_125 VGND VGND VPWR VPWR sky130_fd_sc_hd__fill_1
X_530_ _517_/A _525_/X _528_/X _529_/Y VGND VGND VPWR VPWR _531_/B sky130_fd_sc_hd__a31o_1
XFILLER_4_14 VGND VGND VPWR VPWR sky130_fd_sc_hd__fill_1
X_461_ _470_/A _460_/B _459_/A _459_/Y _460_/Y VGND VGND VPWR VPWR _462_/A sky130_fd_sc_hd__o32a_1
X_392_ _374_/X _391_/X _374_/X _391_/X VGND VGND VPWR VPWR _392_/X sky130_fd_sc_hd__a2bb2o_1
XFILLER_13_67 VGND VGND VPWR VPWR sky130_fd_sc_hd__decap_4
X_513_ _494_/X _512_/X _494_/X _512_/X VGND VGND VPWR VPWR _513_/X sky130_fd_sc_hd__a2bb2o_1
X_444_ _527_/A _521_/A _442_/Y _442_/A _443_/X VGND VGND VPWR VPWR _444_/X sky130_fd_sc_hd__a32o_1
X_375_ _359_/X _360_/Y _358_/X _361_/X VGND VGND VPWR VPWR _375_/X sky130_fd_sc_hd__o22a_1
XFILLER_24_11 VGND VGND VPWR VPWR sky130_fd_sc_hd__decap_6
XFILLER_5_90 VGND VGND VPWR VPWR sky130_fd_sc_hd__decap_6
XFILLER_24_77 VGND VGND VPWR VPWR sky130_fd_sc_hd__decap_6
XFILLER_24_44 VGND VGND VPWR VPWR sky130_fd_sc_hd__decap_4