*SPEF "IEEE 1481-1998"
*DESIGN "dvsd_8216m9"
*DATE "Fri Aug 20 18:35:17 2021"
*VENDOR "AUC CSCE Department"
*PROGRAM "SPEF Extractor"
*VERSION "1.0"
*DESIGN_FLOW "PIN_CAP NONE"
*DIVIDER /
*DELIMITER :
*BUS_DELIMITER []
*T_UNIT 1.00000 NS
*C_UNIT 1.00000 PF
*R_UNIT 1.00000 OHM
*L_UNIT 1.00000 HENRY


*NAME_MAP
*0 A[0]
*1 A[1]
*2 A[2]
*3 A[3]
*4 A[4]
*5 A[5]
*6 A[6]
*7 A[7]
*8 B[0]
*9 B[1]
*10 B[2]
*11 B[3]
*12 B[4]
*13 B[5]
*14 B[6]
*15 B[7]
*16 M[0]
*17 M[10]
*18 M[11]
*19 M[12]
*20 M[13]
*21 M[14]
*22 M[15]
*23 M[1]
*24 M[2]
*25 M[3]
*26 M[4]
*27 M[5]
*28 M[6]
*29 M[7]
*30 M[8]
*31 M[9]
*32 _000_
*33 _001_
*34 _002_
*35 _003_
*36 _004_
*37 _005_
*38 _006_
*39 _007_
*40 _008_
*41 _009_
*42 _010_
*43 _011_
*44 _012_
*45 _013_
*46 _014_
*47 _015_
*48 _016_
*49 _017_
*50 _018_
*51 _019_
*52 _020_
*53 _021_
*54 _022_
*55 _023_
*56 _024_
*57 _025_
*58 _026_
*59 _027_
*60 _028_
*61 _029_
*62 _030_
*63 _031_
*64 _032_
*65 _033_
*66 _034_
*67 _035_
*68 _036_
*69 _037_
*70 _038_
*71 _039_
*72 _040_
*73 _041_
*74 _042_
*75 _043_
*76 _044_
*77 _045_
*78 _046_
*79 _047_
*80 _048_
*81 _049_
*82 _050_
*83 _051_
*84 _052_
*85 _053_
*86 _054_
*87 _055_
*88 _056_
*89 _057_
*90 _058_
*91 _059_
*92 _060_
*93 _061_
*94 _062_
*95 _063_
*96 _064_
*97 _065_
*98 _066_
*99 _067_
*100 _068_
*101 _069_
*102 _070_
*103 _071_
*104 _072_
*105 _073_
*106 _074_
*107 _075_
*108 _076_
*109 _077_
*110 _078_
*111 _079_
*112 _080_
*113 _081_
*114 _082_
*115 _083_
*116 _084_
*117 _085_
*118 _086_
*119 _087_
*120 _088_
*121 _089_
*122 _090_
*123 _091_
*124 _092_
*125 _093_
*126 _094_
*127 _095_
*128 _096_
*129 _097_
*130 _098_
*131 _099_
*132 _100_
*133 _101_
*134 _102_
*135 _103_
*136 _104_
*137 _105_
*138 _106_
*139 _107_
*140 _108_
*141 _109_
*142 _110_
*143 _111_
*144 _112_
*145 _113_
*146 _114_
*147 _115_
*148 _116_
*149 _117_
*150 _118_
*151 _119_
*152 _120_
*153 _121_
*154 _122_
*155 _123_
*156 _124_
*157 _125_
*158 _126_
*159 _127_
*160 _128_
*161 _129_
*162 _130_
*163 _131_
*164 _132_
*165 _133_
*166 _134_
*167 _135_
*168 _136_
*169 _137_
*170 _138_
*171 _139_
*172 _140_
*173 _141_
*174 _142_
*175 _143_
*176 _144_
*177 _145_
*178 _146_
*179 _147_
*180 _148_
*181 _149_
*182 _150_
*183 _151_
*184 _152_
*185 _153_
*186 _154_
*187 _155_
*188 _156_
*189 _157_
*190 _158_
*191 _159_
*192 _160_
*193 _161_
*194 _162_
*195 _163_
*196 _164_
*197 _165_
*198 _166_
*199 _167_
*200 _168_
*201 _169_
*202 _170_
*203 _171_
*204 _172_
*205 _173_
*206 _174_
*207 _175_
*208 _176_
*209 _177_
*210 _178_
*211 _179_
*212 _180_
*213 _181_
*214 _182_
*215 _183_
*216 _184_
*217 _185_
*218 _186_
*219 _187_
*220 _188_
*221 _189_
*222 _190_
*223 _191_
*224 _192_
*225 _193_
*226 _194_
*227 _195_
*228 _196_
*229 _197_
*230 _198_
*231 _199_
*232 _200_
*233 _201_
*234 _202_
*235 _203_
*236 _204_
*237 _205_
*238 _206_
*239 _207_
*240 _208_
*241 _209_
*242 _210_
*243 _211_
*244 _212_
*245 _213_
*246 _214_
*247 _215_
*248 _216_
*249 _217_
*250 _218_
*251 _219_
*252 _220_
*253 _221_
*254 _222_
*255 _223_
*256 _224_
*257 _225_
*258 _226_
*259 _227_
*260 _228_
*261 _229_
*262 _230_
*263 _231_
*264 _232_
*265 _233_
*266 _234_
*267 _235_
*268 _236_
*269 _237_
*270 _238_
*271 _239_
*272 _240_
*273 _241_
*274 _242_
*275 _243_
*276 _244_
*277 _245_
*278 _246_
*279 _247_
*280 _248_
*281 _249_
*282 _250_
*283 _251_
*284 _252_
*285 _253_
*286 _254_
*287 _255_
*288 _256_
*289 _257_
*290 _258_
*291 _259_
*292 _260_
*293 _261_
*294 _262_
*295 _263_
*296 _264_
*297 _265_
*298 _266_
*299 _267_
*300 _268_
*301 _269_
*302 _270_
*303 _271_
*304 _272_
*305 _273_
*306 _274_
*307 _275_
*308 _276_
*309 _277_
*310 _278_
*311 _279_
*312 _280_
*313 _281_
*314 _282_
*315 _283_
*316 _284_
*317 _285_
*318 _286_
*319 _287_
*320 _288_
*321 _289_
*322 _290_
*323 _291_
*324 _292_
*325 _293_
*326 _294_
*327 _295_
*328 _296_
*329 _297_
*330 _298_
*331 _299_
*332 _300_
*333 _301_
*334 _302_
*335 _303_
*336 _304_
*337 _305_
*338 _306_
*339 _307_
*340 _308_
*341 _309_
*342 net1
*343 net10
*344 net11
*345 net12
*346 net13
*347 net14
*348 net15
*349 net16
*350 net17
*351 net18
*352 net19
*353 net2
*354 net20
*355 net21
*356 net22
*357 net23
*358 net24
*359 net25
*360 net26
*361 net27
*362 net28
*363 net29
*364 net3
*365 net30
*366 net31
*367 net32
*368 net4
*369 net5
*370 net6
*371 net7
*372 net8
*373 net9

*D_NET *0 0.0017899160375000004
*CONN
*P A[0] I
*I input1:A I
*CAP
0 input1:A 4.017137184e-05
1 *0:1 0.0010638665219200002
2 *0:3 0.0006858781437400002
3 *0:2 0
*RES
0 input1:A *0:1 0.30357142857142855
1 *0:1 *0:2 11.089285714285714
2 *0:3 *0:4 7.741071428571428
3 input1:A input1:A 0
4 *0:2 *0:3 0
*END

*D_NET *1 0.00058054129944
*CONN
*P A[1] I
*I input2:A I
*CAP
4 *1:1 0.0005567274927
5 *1:3 2.3813806740000006e-05
6 input2:A 0
*RES
5 *1:1 *1:2 0.9729000000000001
6 *1:3 *1:4 0.15178571428571427
7 *1:3 *1:2 0
8 input2:A input2:A 0
9 input2:A *1:4 0
*END

*D_NET *2 0.00054235003932
*CONN
*P A[2] I
*I input3:A I
*CAP
7 *2:1 0.0003596407917
8 *2:3 0.00018270924762000003
9 input3:A 0
*RES
10 *2:1 *2:2 0.6125666666666667
11 *2:3 *2:4 1.9732142857142856
12 *2:3 *2:2 0
13 input3:A input3:A 0
14 input3:A *2:4 0
*END

*D_NET *3 0.0037322785187800006
*CONN
*P A[3] I
*I input4:A I
*CAP
10 *3:1 6.353766696000002e-05
11 *3:3 4.640188412000001e-05
12 *3:4 6.353766696000002e-05
13 *3:5 0.0029225446345000003
14 *3:6 0.0005960852944
15 input4:A 4.017137184e-05
16 *3:7 0
*RES
15 *3:1 *3:2 0.6071428571428571
16 *3:3 *3:2 0.4107142857142857
17 *3:4 *3:3 0.6071428571428571
18 *3:5 *3:4 1.232142857142857
19 *3:6 *3:7 6.160714285714286
20 input4:A *3:6 0.30357142857142855
21 *3:5 *3:8 32.02678571428571
22 *3:7 *3:8 0
23 input4:A input4:A 0
*END

*D_NET *4 0.0009186283220200001
*CONN
*P A[4] I
*I input5:A I
*CAP
17 *4:1 0.0002062676048
18 *4:2 0.0007123607172200001
19 input5:A 0
*RES
24 *4:1 input5:A 2.0535714285714284
25 *4:2 *4:3 8.044642857142856
26 input5:A input5:A 0
27 *4:1 *4:2 0
*END

*D_NET *5 0.00145707275202
*CONN
*P A[5] I
*I input6:A I
*CAP
20 input6:A 4.017137184e-05
21 *5:2 5.029638022e-05
22 *5:4 0.0006925561676400001
23 *5:6 0.00067404883232
*RES
28 input6:A *5:1 0.30357142857142855
29 *5:2 *5:3 0.45535714285714285
30 *5:4 *5:3 0.4107142857142857
31 *5:4 *5:5 7.285714285714286
32 *5:6 *5:1 6.982142857142857
33 input6:A input6:A 0
34 *5:6 *5:2 0
*END

*D_NET *6 0.0066055703284599995
*CONN
*P A[6] I
*I input7:A I
*CAP
24 *6:1 6.353766696000002e-05
25 *6:3 4.640188412000001e-05
26 *6:4 6.353766696000002e-05
27 *6:5 0.0009480351118000002
28 *6:7 0.00063959102068
29 *6:10 0.0014515360770000001
30 *6:6 4.640188412000001e-05
31 *6:11 5.029638022e-05
32 *6:13 0.0032962326365999993
33 *6:8 0
34 *6:12 0
35 input7:A 0
*RES
35 *6:1 *6:2 0.6071428571428571
36 *6:3 *6:2 0.4107142857142857
37 *6:4 *6:3 0.6071428571428571
38 *6:5 *6:4 1.6428571428571428
39 *6:5 *6:6 8.982142857142856
40 *6:7 *6:8 6.678571428571428
41 *6:7 *6:9 0.4107142857142857
42 *6:10 *6:9 16.517857142857142
43 *6:6 *6:10 0.4107142857142857
44 *6:11 *6:12 0.45535714285714285
45 *6:13 *6:14 5.981533333333333
46 *6:8 *6:14 0
47 *6:12 *6:13 0
48 input7:A input7:A 0
49 input7:A *6:11 0
*END

*D_NET *7 0.00077946712056
*CONN
*P A[7] I
*I input8:A I
*CAP
36 *7:1 0.00026215696806
37 *7:3 0.0005173101524999999
38 input8:A 0
*RES
50 *7:1 *7:2 2.883928571428571
51 *7:3 *7:4 0.9008333333333334
52 input8:A input8:A 0
53 input8:A *7:2 0
54 *7:1 *7:3 0
*END

*D_NET *8 0.005745998710819999
*CONN
*P B[0] I
*I input9:A I
*CAP
39 *8:1 0.0009246681352000001
40 *8:3 4.640188412000001e-05
41 *8:4 0.0002753982548
42 *8:6 0.0028232245541999993
43 *8:8 2.3813806740000006e-05
44 *8:10 0.00165249207576
45 *8:5 0
46 *8:9 0
47 input9:A 0
*RES
55 *8:1 *8:2 2.464285714285714
56 *8:1 *8:3 7.892857142857142
57 *8:3 *8:4 0.4107142857142857
58 *8:4 *8:5 3.035714285714285
59 *8:6 *8:7 5.116733333333333
60 *8:8 *8:9 0.15178571428571427
61 *8:10 *8:2 18.82142857142857
62 *8:5 *8:7 0
63 *8:9 *8:6 0
64 input9:A input9:A 0
65 input9:A *8:8 0
*END

*D_NET *9 0.00385144981724
*CONN
*P B[1] I
*I input10:A I
*CAP
48 *9:1 0.0018574997192999999
49 *9:3 0.00171869850946
50 input10:A 6.898398368e-05
51 *9:5 0.0002062676048
52 *9:6 0
*RES
66 *9:1 *9:2 3.3511
67 *9:3 *9:4 19.580357142857142
68 input10:A *9:5 0.6071428571428571
69 *9:5 *9:6 2.0535714285714284
70 *9:6 *9:4 0
71 *9:3 *9:1 0
72 input10:A input10:A 0
*END

*D_NET *10 0.00322779298912
*CONN
*P B[2] I
*I input11:A I
*CAP
53 *10:1 0.00024643897664
54 input11:A 0.00044015821855999997
55 *10:3 0.0009109800183200002
56 *10:4 4.640188412000001e-05
57 *10:5 0.00063291299678
58 *10:7 0.0009509008947
59 *10:9 0
*RES
73 *10:1 *10:2 0.30357142857142855
74 input11:A *10:2 4.517857142857142
75 *10:3 *10:4 10.321428571428571
76 *10:4 *10:5 0.4107142857142857
77 *10:5 *10:6 7.133928571428571
78 *10:7 *10:8 1.6935666666666669
79 *10:1 *10:9 2.0535714285714284
80 input11:A input11:A 0
81 *10:3 *10:8 0
82 *10:9 *10:6 0
*END

*D_NET *11 0.00125548086466
*CONN
*P B[3] I
*I input12:A I
*CAP
60 *11:1 0.00065939557026
61 *11:3 0.0005960852944
62 input12:A 0
*RES
83 *11:1 *11:2 7.437499999999999
84 *11:3 input12:A 6.160714285714286
85 *11:3 *11:2 0
86 input12:A input12:A 0
*END

*D_NET *12 0.00101143209026
*CONN
*P B[4] I
*I input13:A I
*CAP
63 *12:1 0.0002062676048
64 *12:2 0.00012974410066
65 *12:4 0.0006754203848000001
66 input13:A 0
*RES
87 *12:1 input13:A 2.0535714285714284
88 *12:2 *12:3 1.3660714285714284
89 *12:4 *12:3 0.8214285714285714
90 *12:4 *12:5 6.678571428571428
91 input13:A input13:A 0
92 *12:1 *12:2 0
*END

*D_NET *13 0.0032121834591800004
*CONN
*P B[5] I
*I input14:A I
*CAP
67 *13:1 0.0009499249793200002
68 *13:3 8.223124824000001e-05
69 *13:4 0.00038210744793999994
70 *13:5 0.0011820014316800001
71 input14:A 9.779659552000001e-05
72 *13:8 0.0005181217564799999
73 *13:6 0
*RES
93 *13:1 *13:2 10.767857142857142
94 *13:3 *13:1 0.8214285714285714
95 *13:4 *13:3 4.25892857142857
96 *13:5 *13:6 11.910714285714285
97 *13:5 *13:7 0.30357142857142855
98 input14:A *13:8 0.9107142857142857
99 *13:8 *13:7 5.339285714285714
100 *13:6 *13:4 0
101 input14:A input14:A 0
*END

*D_NET *14 0.0006729237866
*CONN
*P B[6] I
*I input15:A I
*CAP
74 *14:1 0.0005961448329
75 *14:3 7.67789537e-05
76 input15:A 0
*RES
102 *14:1 *14:2 1.0449666666666666
103 *14:3 *14:4 0.7589285714285713
104 *14:3 *14:2 0
105 input15:A input15:A 0
106 input15:A *14:4 0
*END

*D_NET *15 0.008806095409739999
*CONN
*P B[7] I
*I input16:A I
*CAP
77 *15:1 0.00014298538739999998
78 *15:3 0.0018435019011200002
79 *15:5 0.0009507038785400001
80 *15:7 0.00215654565568
81 *15:9 0.0002062676048
82 *15:10 0.00028863954154000006
83 *15:12 0.0016801216884000001
84 *15:14 0.0006991194304800001
85 *15:15 4.640188412000001e-05
86 *15:16 0.0007918084376600001
87 *15:18 0
88 *15:4 0
89 *15:11 0
90 input16:A 0
*RES
107 *15:1 *15:2 1.5178571428571426
108 *15:3 *15:4 19.303571428571427
109 *15:5 *15:6 10.776785714285714
110 *15:7 *15:8 0.30357142857142855
111 *15:9 *15:8 2.0535714285714284
112 *15:10 *15:11 3.1874999999999996
113 *15:12 *15:13 3.0268
114 *15:14 *15:15 7.892857142857142
115 *15:15 *15:16 0.4107142857142857
116 *15:16 *15:17 8.95535714285714
117 *15:7 *15:18 22.178571428571427
118 *15:18 *15:1 0
119 *15:3 *15:2 0
120 *15:4 *15:6 0
121 *15:9 *15:10 0
122 *15:11 *15:13 0
123 *15:14 *15:12 0
124 input16:A input16:A 0
125 input16:A *15:17 0
*END

*D_NET *16 0.00120938463348
*CONN
*P M[0] O
*I output17:X O
*CAP
91 *16:1 0.00012974410066
92 *16:3 0.0009903182348999999
93 output17:X 8.932229792e-05
94 *16:5 0
*RES
126 *16:1 *16:2 1.3660714285714284
127 *16:3 *16:4 1.7656333333333334
128 output17:X *16:5 0.8214285714285714
129 output17:X output17:X 0
130 *16:1 *16:4 0
131 *16:5 *16:2 0
*END

*D_NET *17 0.0017622438611400002
*CONN
*P M[10] O
*I output18:X O
*CAP
95 *17:1 0.00110284829088
96 *17:2 0.00065939557026
97 output18:X 0
*RES
132 *17:1 output18:X 11.5
133 *17:2 *17:3 7.437499999999999
134 output18:X output18:X 0
135 *17:1 *17:2 0
*END

*D_NET *18 0.00063291299678
*CONN
*P M[11] O
*I output19:X O
*CAP
98 *18:1 0.00063291299678
99 output19:X 0
*RES
136 *18:1 *18:2 7.133928571428571
137 output19:X output19:X 0
138 output19:X *18:2 0
*END

*D_NET *19 0.00099510767742
*CONN
*P M[12] O
*I output20:X O
*CAP
100 *19:1 0.00063291299678
101 *19:3 0.0003621946806399999
102 output20:X 0
*RES
139 *19:1 *19:2 7.133928571428571
140 *19:3 output20:X 3.6964285714285707
141 *19:3 *19:2 0
142 output20:X output20:X 0
*END

*D_NET *20 0.00076121706366
*CONN
*P M[13] O
*I output21:X O
*CAP
103 *20:1 0.00063291299678
104 *20:3 0.00012830406688
105 output21:X 0
*RES
143 *20:1 *20:2 7.133928571428571
144 *20:3 output21:X 1.232142857142857
145 *20:3 *20:2 0
146 output21:X output21:X 0
*END

*D_NET *21 0.00074285254786
*CONN
*P M[14] O
*I output22:X O
*CAP
106 *21:1 0.00026215696806
107 *21:3 0.00048069557980000006
108 output22:X 0
*RES
147 *21:1 *21:2 2.883928571428571
148 *21:3 *21:2 0.4107142857142857
149 *21:3 *21:4 4.857142857142857
150 output22:X output22:X 0
151 output22:X *21:1 0
*END

*D_NET *22 0.0006341194864400001
*CONN
*P M[15] O
*I output23:X O
*CAP
109 *22:1 0.0004778928123
110 *22:3 0.00015622667414000004
111 output23:X 0
*RES
152 *22:1 *22:2 0.8287666666666667
153 *22:3 *22:4 1.669642857142857
154 *22:3 *22:1 0
155 output23:X output23:X 0
156 output23:X *22:4 0
*END

*D_NET *23 0.00066340482742
*CONN
*P M[1] O
*I output24:X O
*CAP
112 *23:1 0.00016946796088000002
113 *23:3 0.00049393686654
114 output24:X 0
*RES
157 *23:1 *23:2 1.8214285714285714
158 *23:3 *23:2 0.4107142857142857
159 *23:3 *23:4 5.008928571428571
160 output24:X output24:X 0
161 output24:X *23:4 0
*END

*D_NET *24 0.00170329199216
*CONN
*P M[2] O
*I output25:X O
*CAP
115 *24:1 0.0007918084376600001
116 *24:3 0.0009114835544999999
117 output25:X 0
*RES
162 *24:1 *24:2 8.95535714285714
163 *24:3 *24:4 1.6215
164 output25:X output25:X 0
165 output25:X *24:2 0
166 *24:1 *24:3 0
*END

*D_NET *25 0.00052818919252
*CONN
*P M[3] O
*I output26:X O
*CAP
118 *25:1 5.029638022e-05
119 *25:3 0.0004778928123
120 output26:X 0
*RES
167 *25:1 *25:2 0.45535714285714285
168 *25:3 *25:4 0.8287666666666667
169 output26:X output26:X 0
170 output26:X *25:2 0
171 *25:1 *25:3 0
*END

*D_NET *26 0.0007362186727000002
*CONN
*P M[4] O
*I output27:X O
*CAP
121 *26:1 5.034052896000001e-05
122 *26:2 0.0006858781437400002
123 output27:X 0
*RES
172 *26:1 output27:X 0.4107142857142857
173 *26:2 *26:3 7.741071428571428
174 output27:X output27:X 0
175 *26:1 *26:2 0
*END

*D_NET *27 0.0018791891680200001
*CONN
*P M[5] O
*I output28:X O
*CAP
124 *27:1 0.00065939557026
125 *27:3 0.00121979359776
126 output28:X 0
*RES
176 *27:1 *27:2 7.437499999999999
177 *27:3 output28:X 12.732142857142856
178 output28:X output28:X 0
179 *27:3 *27:1 0
*END

*D_NET *28 0.00163131517626
*CONN
*P M[6] O
*I output29:X O
*CAP
127 *28:1 0.0006064304233
128 *28:3 0.0010248847529600001
129 output29:X 0
*RES
180 *28:1 *28:2 6.830357142857142
181 *28:3 output29:X 10.678571428571429
182 *28:3 *28:2 0
183 output29:X output29:X 0
*END

*D_NET *29 0.0010042624751199999
*CONN
*P M[7] O
*I output30:X O
*CAP
130 *29:1 0.0005567274927
131 *29:3 0.00044753498242
132 output30:X 0
*RES
184 *29:1 *29:2 0.9729000000000001
185 *29:3 *29:4 5.008928571428571
186 *29:3 *29:2 0
187 output30:X output30:X 0
188 output30:X *29:4 0
*END

*D_NET *30 0.00241941315762
*CONN
*P M[8] O
*I output31:X O
*CAP
133 *30:1 0.00097718645202
134 *30:3 0.00022243310784000002
135 *30:5 0.00121979359776
136 *30:6 0
137 output31:X 0
*RES
189 *30:1 *30:2 11.080357142857142
190 *30:3 *30:4 2.4285714285714284
191 *30:5 *30:6 12.732142857142856
192 *30:5 *30:1 0
193 *30:6 *30:3 0
194 output31:X output31:X 0
195 output31:X *30:4 0
*END

*D_NET *31 0.00137072722356
*CONN
*P M[9] O
*I output32:X O
*CAP
138 *31:1 0.00026215696806
139 *31:3 0.0011085702555
140 output32:X 0
*RES
196 *31:1 *31:2 2.883928571428571
197 *31:3 *31:4 1.9818333333333336
198 output32:X output32:X 0
199 output32:X *31:2 0
200 *31:1 *31:3 0
*END

*D_NET *32 0.0022870301894800005
*CONN
*I _512_:A1 I
*I _416_:A2 I
*I _378_:A I
*I _377_:Y O
*CAP
141 _378_:A 8.932229792e-05
142 *32:2 0.00043429369568000003
143 *32:4 0.00030188082828000006
144 *32:6 0.00110284829088
145 *32:8 9.002024044000002e-05
146 *32:9 5.034052896000001e-05
147 *32:10 9.002024044000002e-05
148 _512_:A1 0.00012830406688
149 *32:1 0
150 _416_:A2 0
151 *32:11 0
152 *32:7 0
153 _377_:Y 0
*RES
201 _378_:A *32:1 0.8214285714285714
202 *32:2 *32:3 4.857142857142857
203 *32:4 *32:5 3.339285714285714
204 *32:6 *32:7 11.5
205 *32:8 *32:2 0.9107142857142857
206 *32:9 _377_:Y 0.4107142857142857
207 *32:10 *32:4 0.9107142857142857
208 _512_:A1 *32:11 1.232142857142857
209 _378_:A _378_:A 0
210 *32:1 *32:2 0
211 _416_:A2 _416_:A2 0
212 _416_:A2 *32:3 0
213 *32:11 *32:5 0
214 *32:6 *32:4 0
215 *32:7 *32:8 0
216 _377_:Y _377_:Y 0
217 *32:9 *32:10 0
218 _512_:A1 _512_:A1 0
*END

*D_NET *33 0.005829608881720001
*CONN
*I _568_:A1 I
*I _544_:A I
*I _477_:B1 I
*I _447_:A I
*I _379_:B2 I
*I _378_:X O
*CAP
154 _447_:A 0.00016728583584
155 *33:2 0.0004078111222
156 *33:4 0.0002062676048
157 *33:5 5.034052896000001e-05
158 *33:6 5.029638022e-05
159 *33:8 4.640188412000001e-05
160 *33:3 0.00065939557026
161 *33:9 0.00043429369568000003
162 *33:11 0.0002062676048
163 _477_:B1 6.898398368e-05
164 *33:13 0.00016946796088000002
165 *33:15 0.00063506706336
166 *33:17 0.00035484597524
167 *33:18 0.0010638665219200002
168 _568_:A1 5.034052896000001e-05
169 *33:21 0.00022243310784000002
170 *33:23 0.00016728583584
171 _544_:A 0.00086895767712
172 *33:1 0
173 _378_:X 0
174 _379_:B2 0
175 *33:19 0
176 *33:12 0
177 *33:24 0
178 *33:16 0
179 *33:20 0
*RES
219 _447_:A *33:1 1.6428571428571428
220 *33:2 *33:3 4.553571428571428
221 *33:4 _378_:X 2.0535714285714284
222 *33:5 _379_:B2 0.4107142857142857
223 *33:6 *33:7 0.45535714285714285
224 *33:8 *33:6 0.4107142857142857
225 *33:3 *33:8 7.437499999999999
226 *33:9 *33:10 4.857142857142857
227 *33:11 *33:12 2.0535714285714284
228 _477_:B1 *33:11 0.6071428571428571
229 *33:13 *33:14 1.8214285714285714
230 *33:15 *33:16 6.571428571428571
231 *33:17 *33:9 3.946428571428571
232 *33:18 *33:19 11.089285714285714
233 _568_:A1 *33:20 0.4107142857142857
234 *33:21 *33:22 2.4285714285714284
235 *33:23 _544_:A 1.6428571428571428
236 _544_:A *33:24 9.035714285714285
237 _447_:A _447_:A 0
238 *33:1 *33:3 0
239 *33:4 *33:2 0
240 _378_:X _378_:X 0
241 _379_:B2 _379_:B2 0
242 *33:5 *33:7 0
243 *33:19 *33:25 0
244 *33:18 *33:9 0
245 *33:12 *33:10 0
246 _477_:B1 _477_:B1 0
247 *33:24 *33:13 0
248 *33:15 *33:14 0
249 *33:16 *33:17 0
250 _544_:A _544_:A 0
251 _568_:A1 _568_:A1 0
252 *33:20 *33:22 0
253 *33:23 *33:21 0
*END

*D_NET *34 0.00020582511184000002
*CONN
*I _382_:A I
*I _379_:X O
*CAP
180 _379_:X 8.932229792e-05
181 *34:2 0.00011650281392
182 *34:1 0
183 _382_:A 0
*RES
254 _379_:X *34:1 0.8214285714285714
255 *34:2 *34:3 1.2142857142857142
256 _379_:X _379_:X 0
257 *34:1 *34:2 0
258 _382_:A _382_:A 0
259 _382_:A *34:3 0
*END

*D_NET *35 0.0050344580216
*CONN
*I _565_:A1 I
*I _513_:A I
*I _478_:C I
*I _417_:B I
*I _381_:D I
*I _380_:X O
*CAP
184 *35:1 0.00022911113174000004
185 *35:4 2.3813806740000006e-05
186 *35:5 0.00012830406688
187 _381_:D 5.034052896000001e-05
188 *35:7 0.0008050497244000001
189 *35:8 0.00022243310784000002
190 *35:10 8.932229792e-05
191 *35:11 0.00043429369568000003
192 *35:13 0.00061676578176
193 *35:15 0.0004998204748799999
194 *35:18 0.00099641431424
195 _513_:A 0.0005960852944
196 _565_:A1 0.00034270379616
197 *35:14 0
198 _417_:B 0
199 *35:6 0
200 *35:20 0
201 *35:16 0
202 _380_:X 0
203 *35:21 0
204 _478_:C 0
*RES
260 *35:1 *35:2 1.9732142857142856
261 *35:1 *35:3 0.4107142857142857
262 *35:4 *35:3 0.15178571428571427
263 *35:5 _417_:B 1.232142857142857
264 _381_:D *35:6 0.4107142857142857
265 *35:7 *35:8 9.107142857142856
266 *35:8 *35:9 2.4285714285714284
267 *35:10 _380_:X 0.8214285714285714
268 *35:11 *35:12 4.857142857142857
269 *35:13 *35:14 5.955357142857142
270 *35:15 *35:16 4.723214285714286
271 *35:15 *35:17 0.30357142857142855
272 *35:18 *35:17 9.651785714285714
273 *35:18 _478_:C 0.6071428571428571
274 _513_:A _565_:A1 6.160714285714286
275 *35:13 *35:19 0.30357142857142855
276 _565_:A1 *35:19 3.4910714285714284
277 *35:14 *35:2 0
278 *35:5 *35:4 0
279 _417_:B _417_:B 0
280 _381_:D _381_:D 0
281 *35:6 *35:8 0
282 *35:20 *35:7 0
283 *35:16 *35:9 0
284 _380_:X _380_:X 0
285 *35:10 *35:12 0
286 *35:21 *35:11 0
287 _478_:C _478_:C 0
288 _565_:A1 _565_:A1 0
289 _513_:A _513_:A 0
*END

*D_NET *36 0.0013731682628000002
*CONN
*I _420_:B1_N I
*I _382_:B I
*I _381_:X O
*CAP
205 _381_:X 0.00067404883232
206 *36:1 0.0006991194304800001
207 _382_:B 0
208 _420_:B1_N 0
209 *36:3 0
*RES
290 _381_:X _382_:B 6.982142857142857
291 *36:1 *36:2 7.892857142857142
292 _382_:B _382_:B 0
293 _381_:X _381_:X 0
294 _420_:B1_N _420_:B1_N 0
295 _420_:B1_N *36:2 0
296 *36:3 *36:1 0
*END

*D_NET *37 0.00091071031928
*CONN
*I _420_:A2 I
*I _383_:B2 I
*I _383_:A2_N I
*I _382_:X O
*CAP
210 *37:1 0.00043429369568000003
211 _420_:A2 5.034052896000001e-05
212 _383_:A2_N 0.00012830406688
213 *37:4 0.00012830406688
214 *37:5 0.00016946796088000002
215 *37:3 0
216 _383_:B2 0
217 _382_:X 0
*RES
297 *37:1 *37:2 4.857142857142857
298 _420_:A2 *37:3 0.4107142857142857
299 _383_:A2_N _383_:B2 1.232142857142857
300 *37:4 _382_:X 1.232142857142857
301 *37:5 *37:1 1.8214285714285714
302 _383_:A2_N _383_:A2_N 0
303 _383_:A2_N *37:1 0
304 *37:3 *37:2 0
305 _420_:A2 _420_:A2 0
306 _383_:B2 _383_:B2 0
307 _382_:X _382_:X 0
308 *37:4 *37:5 0
*END

*D_NET *38 0.00380355567456
*CONN
*I _423_:A2 I
*I _384_:B2 I
*I _384_:A2_N I
*I _383_:X O
*CAP
218 _384_:B2 0.00016728583584
219 _384_:A2_N 0.00016847543872000001
220 *38:3 0.0004023660524799999
221 *38:5 0.0003621946806399999
222 *38:6 0.0023410389862400004
223 _423_:A2 0.0003621946806399999
224 *38:1 0
225 _383_:X 0
*RES
309 _384_:B2 *38:1 1.6428571428571428
310 _384_:A2_N _384_:B2 1.232142857142857
311 _384_:A2_N *38:2 0.30357142857142855
312 *38:3 _383_:X 3.6964285714285707
313 *38:3 *38:4 0.30357142857142855
314 *38:5 *38:4 3.6964285714285707
315 *38:6 *38:7 26.71428571428571
316 _423_:A2 *38:2 3.6964285714285707
317 _384_:B2 _384_:B2 0
318 *38:1 *38:7 0
319 _384_:A2_N _384_:A2_N 0
320 _383_:X _383_:X 0
321 *38:5 *38:6 0
322 _423_:A2 _423_:A2 0
*END

*D_NET *39 0.0008834919202
*CONN
*I _423_:B1 I
*I _397_:B1 I
*I _397_:A1_N I
*I _384_:X O
*CAP
226 *39:1 0.00014298538739999998
227 *39:3 0.00016728583584
228 _423_:B1 6.898398368e-05
229 *39:4 0.0002062676048
230 *39:5 4.017137184e-05
231 _397_:B1 0.00012830406688
232 *39:7 0.00012949366976
233 _397_:A1_N 0
234 _384_:X 0
*RES
323 *39:1 *39:2 1.5178571428571426
324 *39:3 _384_:X 1.6428571428571428
325 _423_:B1 *39:4 0.6071428571428571
326 *39:4 *39:5 2.0535714285714284
327 *39:5 *39:3 0.30357142857142855
328 _397_:B1 *39:6 1.232142857142857
329 *39:7 *39:6 0.30357142857142855
330 *39:7 _397_:A1_N 0.8214285714285714
331 _397_:A1_N _397_:A1_N 0
332 _397_:A1_N *39:2 0
333 *39:3 *39:1 0
334 _384_:X _384_:X 0
335 _423_:B1 _423_:B1 0
336 _397_:B1 _397_:B1 0
*END

*D_NET *40 0.00380693821628
*CONN
*I _565_:A2 I
*I _534_:A2 I
*I _505_:A2 I
*I _470_:A2 I
*I _386_:A I
*I _385_:X O
*CAP
235 _470_:A2 0.00044015821855999997
236 *40:2 0.00019595053436
237 _534_:A2 7.102101632000001e-05
238 *40:4 3.0849644479999996e-05
239 *40:5 0.00016728583584
240 *40:7 0.00061967171004
241 *40:9 0.00032180013892
242 *40:6 0.00032321291168
243 _386_:A 6.983141344e-05
244 *40:13 4.017137184e-05
245 *40:14 0.00024524937376
246 *40:8 0.00128173604704
247 *40:1 0
248 _385_:X 0
249 _505_:A2 0
250 _565_:A2 0
251 *40:12 0
252 *40:15 0
*RES
337 _470_:A2 *40:1 4.517857142857142
338 *40:2 *40:3 2.1249999999999996
339 _534_:A2 _534_:A2 0.09821428571428571
340 _534_:A2 *40:4 0.4107142857142857
341 *40:4 *40:5 0.20535714285714285
342 *40:5 *40:6 1.6428571428571428
343 *40:7 *40:8 6.982142857142857
344 *40:9 *40:10 0.4107142857142857
345 *40:9 *40:11 3.035714285714285
346 *40:6 *40:12 3.2857142857142856
347 _386_:A *40:13 0.6160714285714285
348 *40:13 *40:14 0.30357142857142855
349 *40:14 *40:15 2.464285714285714
350 *40:8 *40:2 14.571428571428571
351 _470_:A2 _470_:A2 0
352 *40:1 *40:2 0
353 _385_:X _385_:X 0
354 _385_:X *40:3 0
355 _505_:A2 _505_:A2 0
356 _505_:A2 *40:8 0
357 _534_:A2 _534_:A2 0
358 *40:6 *40:7 0
359 _565_:A2 _565_:A2 0
360 _565_:A2 *40:10 0
361 *40:12 *40:11 0
362 _386_:A _386_:A 0
363 *40:15 *40:16 0
*END

*D_NET *41 0.005394333329600002
*CONN
*I _518_:A2 I
*I _483_:A2 I
*I _446_:A2 I
*I _400_:A1 I
*I _396_:A1 I
*I _386_:X O
*CAP
253 *41:1 0.0002062676048
254 *41:2 4.017137184e-05
255 *41:3 0.00063506706336
256 *41:4 0.00011650281392
257 *41:6 0.00024524937376
258 *41:8 0.00016946796088000002
259 *41:10 8.932229792e-05
260 *41:11 8.932229792e-05
261 *41:12 0.0011493231796400002
262 *41:14 0.00038132854871999994
263 *41:13 0.0009904277387600001
264 *41:16 0.0001088131824
265 _386_:X 0.00032321291168
266 *41:19 0.00020745720768000002
267 *41:20 4.017137184e-05
268 *41:21 5.034052896000001e-05
269 *41:22 1.2206189760000002e-05
270 *41:23 5.034052896000001e-05
271 *41:25 6.297043360000001e-05
272 *41:26 1.2629904640000002e-05
273 *41:27 5.034052896000001e-05
274 _518_:A2 1.2206189760000002e-05
275 *41:28 0.00014898455423999999
276 *41:29 0.00014008654176
277 *41:30 6.212300384000002e-05
278 _400_:A1 0
279 _396_:A1 0
280 *41:7 0
281 _446_:A2 0
282 _483_:A2 0
*RES
364 *41:1 _400_:A1 2.0535714285714284
365 *41:2 *41:1 0.30357142857142855
366 *41:3 *41:2 6.571428571428571
367 *41:4 *41:5 1.2142857142857142
368 *41:6 *41:7 2.464285714285714
369 *41:8 *41:9 1.8214285714285714
370 *41:10 _446_:A2 0.8214285714285714
371 *41:11 _483_:A2 0.8214285714285714
372 *41:12 *41:13 13.053571428571427
373 *41:14 *41:12 4.249999999999999
374 *41:13 *41:15 11.232142857142856
375 *41:16 *41:17 1.0267857142857142
376 _386_:X *41:18 3.2857142857142856
377 *41:19 *41:18 0.30357142857142855
378 *41:19 *41:20 1.6428571428571428
379 *41:20 *41:21 0.30357142857142855
380 *41:21 *41:22 0.4107142857142857
381 *41:22 *41:23 0.008928571428571428
382 *41:23 *41:24 0.4107142857142857
383 *41:25 *41:24 0.01339285714285714
384 *41:25 *41:26 0.4107142857142857
385 *41:26 *41:27 0.01339285714285714
386 *41:27 _518_:A2 0.4107142857142857
387 _518_:A2 _518_:A2 0.008928571428571428
388 *41:28 *41:17 0.30357142857142855
389 *41:28 *41:29 1.0267857142857142
390 *41:29 *41:29 0.004464285714285714
391 *41:29 *41:30 1.232142857142857
392 *41:30 *41:30 0.004464285714285714
393 *41:30 _386_:X 0.4107142857142857
394 _400_:A1 _400_:A1 0
395 *41:3 *41:15 0
396 _396_:A1 _396_:A1 0
397 _396_:A1 *41:5 0
398 *41:7 *41:4 0
399 *41:6 *41:9 0
400 _400_:A1 *41:8 0
401 _446_:A2 _446_:A2 0
402 *41:10 *41:13 0
403 _483_:A2 _483_:A2 0
404 *41:11 *41:12 0
405 *41:16 *41:14 0
406 _386_:X _386_:X 0
407 _518_:A2 _518_:A2 0
*END

*D_NET *42 0.0005402239896
*CONN
*I _391_:A I
*I _387_:X O
*CAP
283 *42:1 0.0005402239896
284 _391_:A 0
285 _387_:X 0
*RES
408 *42:1 *42:2 6.07142857142857
409 _391_:A _391_:A 0
410 _391_:A *42:2 0
411 _387_:X _387_:X 0
412 _387_:X *42:1 0
*END

*D_NET *43 0.0024873214388000005
*CONN
*I _542_:B I
*I _513_:B I
*I _478_:B I
*I _410_:A I
*I _390_:A I
*I _388_:X O
*CAP
286 *43:1 5.034052896000001e-05
287 *43:2 0.00016946796088000002
288 *43:4 5.034052896000001e-05
289 *43:3 0.00019595053436
290 _478_:B 8.932229792e-05
291 *43:7 0.0012022883266000002
292 *43:9 0.00063959102068
293 *43:10 9.002024044000002e-05
294 _410_:A 0
295 _390_:A 0
296 _388_:X 0
297 *43:6 0
298 _513_:B 0
299 _542_:B 0
*RES
413 *43:1 _390_:A 0.4107142857142857
414 *43:2 *43:3 1.8214285714285714
415 *43:4 _388_:X 0.4107142857142857
416 *43:3 *43:5 2.1249999999999996
417 _478_:B *43:6 0.8214285714285714
418 *43:7 *43:8 13.660714285714285
419 *43:9 *43:8 0.4107142857142857
420 *43:10 *43:7 0.9107142857142857
421 *43:9 *43:2 6.678571428571428
422 _410_:A _410_:A 0
423 _410_:A *43:2 0
424 _390_:A _390_:A 0
425 *43:1 *43:3 0
426 _388_:X _388_:X 0
427 *43:4 *43:5 0
428 _478_:B _478_:B 0
429 *43:6 *43:9 0
430 _513_:B _513_:B 0
431 _513_:B *43:7 0
432 _542_:B _542_:B 0
433 _542_:B *43:10 0
*END

*D_NET *44 0.00349784048468
*CONN
*I _542_:C I
*I _513_:D I
*I _478_:D I
*I _410_:D I
*I _390_:C I
*I _389_:X O
*CAP
300 *44:1 0.00012830406688
301 *44:2 0.00012830406688
302 *44:3 0.0004923790681
303 *44:5 5.034052896000001e-05
304 *44:6 9.002024044000002e-05
305 _478_:D 8.932229792e-05
306 *44:9 0.0005071781532800001
307 *44:12 0.0006991194304800001
308 *44:7 4.640188412000001e-05
309 *44:10 0.00047557535434
310 *44:14 0.0003621946806399999
311 _389_:X 0.0002062676048
312 *44:16 0.00022243310784000002
313 _410_:D 0
314 _390_:C 0
315 _513_:D 0
316 _542_:C 0
317 *44:8 0
318 *44:15 0
*RES
434 *44:1 _410_:D 1.232142857142857
435 *44:2 _390_:C 1.232142857142857
436 *44:3 *44:4 4.991071428571428
437 *44:5 _513_:D 0.4107142857142857
438 *44:6 *44:7 0.9107142857142857
439 _478_:D *44:8 0.8214285714285714
440 *44:9 *44:10 5.160714285714286
441 *44:9 *44:11 0.4107142857142857
442 *44:12 *44:11 7.892857142857142
443 *44:7 *44:12 0.4107142857142857
444 *44:3 *44:13 0.4107142857142857
445 *44:10 *44:13 5.330357142857142
446 *44:14 *44:15 3.6964285714285707
447 _389_:X *44:14 2.0535714285714284
448 *44:16 *44:17 2.4285714285714284
449 _410_:D _410_:D 0
450 *44:1 *44:17 0
451 _389_:X _389_:X 0
452 _390_:C _390_:C 0
453 *44:2 *44:4 0
454 _513_:D _513_:D 0
455 *44:5 *44:7 0
456 _542_:C _542_:C 0
457 _542_:C *44:6 0
458 _478_:D _478_:D 0
459 *44:8 *44:10 0
460 *44:14 *44:16 0
461 *44:15 *44:18 0
*END

*D_NET *45 0.0014630536308400002
*CONN
*I _400_:B1 I
*I _391_:B I
*I _390_:X O
*CAP
319 *45:1 0.0002854207456
320 *45:2 0.00016728583584
321 *45:3 4.640188412000001e-05
322 *45:5 0.0009639451652800001
323 _400_:B1 0
324 _391_:B 0
325 _390_:X 0
*RES
462 *45:1 _400_:B1 0.30357142857142855
463 *45:2 *45:1 1.6428571428571428
464 *45:3 *45:4 0.4107142857142857
465 *45:1 _391_:B 2.464285714285714
466 *45:5 *45:3 10.928571428571427
467 _400_:B1 _400_:B1 0
468 *45:2 *45:4 0
469 _391_:B _391_:B 0
470 _390_:X _390_:X 0
471 _390_:X *45:5 0
*END

*D_NET *46 0.00083901466712
*CONN
*I _396_:B2 I
*I _392_:A I