*SPEF "IEEE 1481-1998"
*DESIGN "dvsd_8216m3"
*DATE "Mon Aug 23 12:44:31 2021"
*VENDOR "AUC CSCE Department"
*PROGRAM "SPEF Extractor"
*VERSION "1.0"
*DESIGN_FLOW "PIN_CAP NONE"
*DIVIDER /
*DELIMITER :
*BUS_DELIMITER []
*T_UNIT 1.00000 NS
*C_UNIT 1.00000 PF
*R_UNIT 1.00000 OHM
*L_UNIT 1.00000 HENRY


*NAME_MAP
*0 _000_
*1 _001_
*2 _002_
*3 _003_
*4 _004_
*5 _005_
*6 _006_
*7 _007_
*8 _008_
*9 _009_
*10 _010_
*11 _011_
*12 _012_
*13 _013_
*14 _014_
*15 _015_
*16 _016_
*17 _017_
*18 _018_
*19 _019_
*20 _020_
*21 _021_
*22 _022_
*23 _023_
*24 _024_
*25 _025_
*26 _026_
*27 _027_
*28 _028_
*29 _029_
*30 _030_
*31 _031_
*32 _032_
*33 _033_
*34 _034_
*35 _035_
*36 _036_
*37 _037_
*38 _038_
*39 _039_
*40 _040_
*41 _041_
*42 _042_
*43 _043_
*44 _044_
*45 _045_
*46 _046_
*47 _047_
*48 _048_
*49 _049_
*50 _050_
*51 _051_
*52 _052_
*53 _053_
*54 _054_
*55 _055_
*56 _056_
*57 _057_
*58 _058_
*59 _059_
*60 _060_
*61 _061_
*62 _062_
*63 _063_
*64 _064_
*65 _065_
*66 _066_
*67 _067_
*68 _068_
*69 _069_
*70 _070_
*71 _071_
*72 _072_
*73 _073_
*74 _074_
*75 _075_
*76 _076_
*77 _077_
*78 _078_
*79 _079_
*80 _080_
*81 _081_
*82 _082_
*83 _083_
*84 _084_
*85 _085_
*86 _086_
*87 _087_
*88 _088_
*89 _089_
*90 _090_
*91 _091_
*92 _092_
*93 _093_
*94 _094_
*95 _095_
*96 _096_
*97 _097_
*98 _098_
*99 _099_
*100 _100_
*101 _101_
*102 _102_
*103 _103_
*104 _104_
*105 _105_
*106 _106_
*107 _107_
*108 _108_
*109 _109_
*110 _110_
*111 _111_
*112 _112_
*113 _113_
*114 _114_
*115 _115_
*116 _116_
*117 _117_
*118 _118_
*119 _119_
*120 _120_
*121 _121_
*122 _122_
*123 _123_
*124 _124_
*125 _125_
*126 _126_
*127 _127_
*128 _128_
*129 _129_
*130 _130_
*131 _131_
*132 _132_
*133 _133_
*134 _134_
*135 _135_
*136 _136_
*137 _137_
*138 _138_
*139 _139_
*140 _140_
*141 _141_
*142 _142_
*143 _143_
*144 _144_
*145 _145_
*146 _146_
*147 _147_
*148 _148_
*149 _149_
*150 _150_
*151 _151_
*152 _152_
*153 _153_
*154 _154_
*155 _155_
*156 _156_
*157 _157_
*158 _158_
*159 _159_
*160 _160_
*161 _161_
*162 _162_
*163 _163_
*164 _164_
*165 _165_
*166 _166_
*167 _167_
*168 _168_
*169 _169_
*170 _170_
*171 _171_
*172 _172_
*173 _173_
*174 _174_
*175 _175_
*176 _176_
*177 _177_
*178 _178_
*179 _179_
*180 _180_
*181 _181_
*182 _182_
*183 _183_
*184 _184_
*185 _185_
*186 _186_
*187 _187_
*188 _188_
*189 _189_
*190 _190_
*191 _191_
*192 _192_
*193 _193_
*194 _194_
*195 _195_
*196 _196_
*197 _197_
*198 _198_
*199 _199_
*200 _200_
*201 _201_
*202 _202_
*203 _203_
*204 _204_
*205 _205_
*206 _206_
*207 _207_
*208 _208_
*209 _209_
*210 _210_
*211 _211_
*212 _212_
*213 _213_
*214 _214_
*215 _215_
*216 _216_
*217 _217_
*218 _218_
*219 _219_
*220 _220_
*221 _221_
*222 _222_
*223 _223_
*224 _224_
*225 _225_
*226 _226_
*227 _227_
*228 _228_
*229 _229_
*230 _230_
*231 _231_
*232 _232_
*233 _233_
*234 _234_
*235 _235_
*236 _236_
*237 _237_
*238 _238_
*239 _239_
*240 _240_
*241 _241_
*242 _242_
*243 _243_
*244 _244_
*245 _245_
*246 _246_
*247 _247_
*248 _248_
*249 _249_
*250 _250_
*251 _251_
*252 _252_
*253 _253_
*254 _254_
*255 _255_
*256 _256_
*257 _257_
*258 _258_
*259 _259_
*260 _260_
*261 _261_
*262 _262_
*263 _263_
*264 _264_
*265 _265_
*266 _266_
*267 _267_
*268 a[0]
*269 a[1]
*270 a[2]
*271 a[3]
*272 a[4]
*273 a[5]
*274 a[6]
*275 a[7]
*276 b[0]
*277 b[1]
*278 b[2]
*279 b[3]
*280 b[4]
*281 b[5]
*282 b[6]
*283 b[7]
*284 m[0]
*285 m[10]
*286 m[11]
*287 m[12]
*288 m[13]
*289 m[14]
*290 m[15]
*291 m[1]
*292 m[2]
*293 m[3]
*294 m[4]
*295 m[5]
*296 m[6]
*297 m[7]
*298 m[8]
*299 m[9]
*300 net1
*301 net10
*302 net11
*303 net12
*304 net13
*305 net14
*306 net15
*307 net16
*308 net17
*309 net18
*310 net19
*311 net2
*312 net20
*313 net21
*314 net22
*315 net23
*316 net24
*317 net25
*318 net26
*319 net27
*320 net28
*321 net29
*322 net3
*323 net30
*324 net31
*325 net32
*326 net4
*327 net5
*328 net6
*329 net7
*330 net8
*331 net9

*D_NET *0 0.00158753168292
*CONN
*I _545_:X O
*I _281_:B1 I
*I _280_:B1 I
*I _280_:A1_N I
*CAP
0 _280_:A1_N 0.00083116551104
1 _280_:B1 0.00024524937376
2 *0:1 0.00046077626916000004
3 *0:3 5.034052896000001e-05
4 _545_:X 0
5 _281_:B1 0
*RES
0 _280_:A1_N _545_:X 8.214285714285714
1 _280_:B1 _280_:A1_N 2.464285714285714
2 _280_:A1_N _280_:A1_N 0.30357142857142855
3 *0:1 *0:2 5.160714285714286
4 *0:3 _280_:B1 0.4107142857142857
5 _280_:A1_N _280_:A1_N 0
6 _545_:X _545_:X 0
7 _280_:B1 _280_:B1 0
8 _281_:B1 _281_:B1 0
9 _281_:B1 *0:2 0
10 *0:3 *0:1 0
*END

*D_NET *1 0.0013186693548
*CONN
*I _546_:X O
*I _281_:A1 I
*I _279_:B1 I
*I _279_:A1_N I
*CAP
6 _279_:B1 0.00012830406688
7 *1:2 0.0005402239896
8 *1:4 0.00024643897664
9 _281_:A1 0.00012830406688
10 *1:6 0.0002753982548
11 *1:1 0
12 _546_:X 0
13 _279_:A1_N 0
14 *1:5 0
15 *1:8 0
*RES
11 _279_:B1 *1:1 1.232142857142857
12 *1:2 *1:3 6.07142857142857
13 *1:4 _279_:A1_N 0.30357142857142855
14 *1:4 _279_:B1 2.0535714285714284
15 _281_:A1 *1:5 1.232142857142857
16 *1:6 *1:7 3.035714285714285
17 _279_:B1 _279_:B1 0
18 *1:1 *1:3 0
19 _546_:X _546_:X 0
20 _546_:X *1:2 0
21 _279_:A1_N _279_:A1_N 0
22 _281_:A1 _281_:A1 0
23 *1:5 *1:7 0
24 *1:8 *1:6 0
*END

*D_NET *2 0.0046709048294
*CONN
*I _548_:A I
*I _547_:X O
*I _354_:D I
*I _353_:B2 I
*I _309_:A2 I
*I _284_:B2 I
*CAP
16 *2:1 0.00024891568132000004
17 *2:3 0.00028423114272
18 *2:4 0.00061676578176
19 _354_:D 8.932229792e-05
20 *2:7 0.00032440251456
21 *2:9 0.0015523282368000001
22 _309_:A2 0.00024524937376
23 *2:11 4.017137184e-05
24 *2:12 0.00032440251456
25 *2:14 0.00019595053436
26 _353_:B2 4.017137184e-05
27 *2:17 8.932229792e-05
28 *2:18 0.00061967171004
29 _548_:A 0
30 _547_:X 0
31 *2:5 0
32 _284_:B2 0
33 *2:13 0
*RES
25 *2:1 *2:2 2.7321428571428568
26 *2:3 _547_:X 2.875
27 *2:4 *2:5 5.955357142857142
28 _354_:D *2:6 0.8214285714285714
29 *2:7 *2:6 0.30357142857142855
30 *2:7 *2:8 2.875
31 *2:9 *2:8 0.30357142857142855
32 *2:9 *2:10 15.8125
33 *2:4 *2:10 0.30357142857142855
34 _309_:A2 *2:11 2.464285714285714
35 *2:11 _354_:D 0.30357142857142855
36 *2:12 _284_:B2 0.30357142857142855
37 *2:12 *2:13 2.875
38 *2:14 *2:15 2.1249999999999996
39 _353_:B2 *2:16 0.30357142857142855
40 *2:17 *2:16 0.8214285714285714
41 *2:18 *2:14 6.982142857142857
42 _548_:A _548_:A 0
43 _548_:A *2:2 0
44 *2:3 *2:1 0
45 _547_:X _547_:X 0
46 *2:5 *2:19 0
47 _354_:D _354_:D 0
48 _309_:A2 _309_:A2 0
49 _284_:B2 _284_:B2 0
50 *2:13 *2:15 0
51 _309_:A2 *2:14 0
52 _353_:B2 _353_:B2 0
53 *2:17 *2:18 0
*END

*D_NET *3 0.009172238092500002
*CONN
*I _549_:B I
*I _548_:X O
*I _458_:A2 I
*I _440_:A2 I
*I _397_:B1 I
*I _370_:A2 I
*CAP
34 *3:1 0.0003621946806399999
35 *3:2 9.002024044000002e-05
36 *3:4 0.0002854207456
37 _548_:X 0.00036338428352000003
38 _549_:B 0.00012830406688
39 *3:9 0.0017915829670600001
40 *3:11 0.0009481108179199999
41 *3:13 0.0003621946806399999
42 _397_:B1 0.00012830406688
43 *3:16 0.00048725884264
44 *3:18 8.851982253e-05
45 *3:19 1.1740868830000003e-05
46 *3:20 0.0009109800183200002
47 *3:21 8.223124824000001e-05
48 *3:22 0.0002753982548
49 _370_:A2 0.00040117644959999997
50 *3:25 9.002024044000002e-05
51 _458_:A2 0.00016728583584
52 *3:28 0.00020919182110000001
53 *3:29 4.640188412000001e-05
54 _440_:A2 5.034052896000001e-05
55 *3:32 0.00019595053436
56 *3:23 4.640188412000001e-05
57 *3:33 0.00011650281392
58 *3:30 0.0015333204951000002
59 *3:5 0
60 *3:7 0
61 *3:8 0
62 *3:15 0
63 *3:24 0
64 *3:27 0
65 *3:31 0
*RES
54 *3:1 _548_:X 3.6964285714285707
55 *3:2 *3:3 0.9107142857142857
56 *3:4 *3:5 2.464285714285714
57 *3:4 *3:6 0.30357142857142855
58 _548_:X *3:7 3.2857142857142856
59 _548_:X _548_:X 0.30357142857142855
60 _549_:B *3:8 1.232142857142857
61 *3:9 *3:10 0.4107142857142857
62 *3:11 *3:12 0.30357142857142855
63 *3:13 *3:12 3.6964285714285707
64 *3:9 *3:14 19.88392857142857
65 *3:11 *3:6 9.446428571428571
66 _397_:B1 *3:15 1.232142857142857
67 *3:16 *3:17 5.4642857142857135
68 *3:18 *3:17 0.01339285714285714
69 *3:18 *3:19 0.7589285714285713
70 *3:19 *3:20 0.01339285714285714
71 *3:20 *3:21 10.321428571428571
72 *3:21 *3:22 0.8214285714285714
73 *3:22 *3:23 3.035714285714285
74 _370_:A2 *3:24 4.107142857142857
75 *3:25 *3:26 0.9107142857142857
76 _458_:A2 *3:27 1.6428571428571428
77 *3:28 *3:29 2.276785714285714
78 *3:29 *3:30 0.4107142857142857
79 _440_:A2 *3:31 0.4107142857142857
80 *3:32 *3:28 2.1249999999999996
81 *3:23 *3:33 0.4107142857142857
82 *3:33 *3:10 1.2142857142857142
83 *3:30 *3:34 17.455357142857142
84 _548_:X _548_:X 0
85 *3:1 *3:3 0
86 *3:5 *3:2 0
87 *3:7 *3:34 0
88 *3:8 *3:14 0
89 _549_:B _549_:B 0
90 *3:13 *3:35 0
91 _397_:B1 _397_:B1 0
92 *3:15 *3:16 0
93 _370_:A2 _370_:A2 0
94 *3:24 *3:25 0
95 _397_:B1 *3:26 0
96 _458_:A2 _458_:A2 0
97 *3:27 *3:28 0
98 _440_:A2 _440_:A2 0
99 *3:31 *3:32 0
*END

*D_NET *4 0.001365845685
*CONN
*I _549_:X O
*I _282_:B1 I
*I _278_:B1 I
*I _278_:A1_N I
*CAP
66 *4:1 0.00035484597524
67 *4:3 0.00044015821855999997
68 _278_:B1 0.0002062676048
69 *4:4 4.017137184e-05
70 _282_:B1 4.017137184e-05
71 *4:5 0.00028423114272
72 _278_:A1_N 0
73 _549_:X 0
74 *4:6 0
*RES
100 *4:1 *4:2 3.946428571428571
101 *4:3 _549_:X 4.517857142857142
102 _278_:B1 *4:4 2.0535714285714284
103 *4:4 _278_:A1_N 0.30357142857142855
104 _282_:B1 *4:5 0.30357142857142855
105 *4:5 *4:6 2.875
106 _278_:A1_N _278_:A1_N 0
107 _278_:A1_N *4:2 0
108 *4:3 *4:1 0
109 _549_:X _549_:X 0
110 _278_:B1 _278_:B1 0
111 _282_:B1 _282_:B1 0
112 *4:6 *4:7 0
*END

*D_NET *5 0.004141988956960001
*CONN
*I _550_:X O
*I _282_:A1 I
*I _277_:B1 I
*I _277_:A1_N I
*CAP
75 *5:1 0.00030855885217999997
76 *5:4 0.00097718645202
77 *5:5 0.0006752384351999999
78 *5:8 0.0006545579478399999
79 _277_:B1 6.212300384000002e-05
80 *5:9 0.00020907052544
81 *5:10 4.017137184e-05
82 *5:11 0.0006935397168000001
83 *5:12 4.017137184e-05
84 _277_:A1_N 4.017137184e-05
85 *5:13 0.00024524937376
86 *5:15 0.00019595053436
87 *5:7 0
88 _550_:X 0
89 _282_:A1 0
90 *5:17 0
*RES
113 *5:1 *5:2 2.883928571428571
114 *5:1 *5:3 0.4107142857142857
115 *5:4 *5:3 11.080357142857142
116 *5:5 *5:6 0.30357142857142855
117 *5:5 *5:7 6.571428571428571
118 *5:8 *5:6 6.7767857142857135
119 _277_:B1 _277_:B1 0.004464285714285714
120 _277_:B1 *5:9 0.4107142857142857
121 *5:9 *5:9 0.004464285714285714
122 *5:9 *5:10 1.232142857142857
123 *5:10 *5:11 0.30357142857142855
124 *5:11 *5:12 7.1875
125 *5:12 *5:8 0.30357142857142855
126 _277_:A1_N *5:13 0.30357142857142855
127 *5:13 *5:14 2.464285714285714
128 *5:9 *5:14 0.6071428571428571
129 *5:15 *5:16 2.1249999999999996
130 *5:7 *5:2 0
131 _550_:X _550_:X 0
132 _550_:X *5:4 0
133 _277_:B1 _277_:B1 0
134 _277_:A1_N _277_:A1_N 0
135 _282_:A1 _282_:A1 0
136 _282_:A1 *5:16 0
137 *5:17 *5:15 0
*END

*D_NET *6 0.00043429369568000003
*CONN
*I _551_:X O
*I _269_:A I
*CAP
91 *6:1 0.00043429369568000003
92 _269_:A 0
93 _551_:X 0
*RES
138 *6:1 *6:2 4.857142857142857
139 _269_:A _269_:A 0
140 _269_:A *6:2 0
141 _551_:X _551_:X 0
142 _551_:X *6:1 0
*END

*D_NET *7 0.0022251737857600005
*CONN
*I _315_:A1 I
*I _300_:B1 I
*I _300_:A1_N I
*I _269_:B_N I
*I _268_:X O
*CAP
94 _269_:B_N 5.034052896000001e-05
95 _300_:B1 0.0010248847529600001
96 *7:3 0.00012830406688
97 *7:4 4.017137184e-05
98 *7:5 0.00012949366976
99 *7:6 8.932229792e-05
100 *7:7 0.00019595053436
101 *7:9 0.00056670656308
102 *7:1 0
103 *7:2 0
104 _300_:A1_N 0
105 _268_:X 0
106 _315_:A1 0
*RES
143 _269_:B_N *7:1 0.4107142857142857
144 _300_:B1 *7:2 10.678571428571429
145 *7:3 *7:4 1.232142857142857
146 *7:4 _300_:B1 0.30357142857142855
147 *7:5 _300_:A1_N 0.30357142857142855
148 *7:5 *7:3 0.8214285714285714
149 *7:6 _268_:X 0.8214285714285714
150 *7:7 *7:8 2.1249999999999996
151 *7:9 *7:10 6.374999999999999
152 *7:1 *7:10 0
153 _269_:B_N _269_:B_N 0
154 _300_:B1 _300_:B1 0
155 *7:2 *7:11 0
156 *7:3 *7:8 0
157 _300_:A1_N _300_:A1_N 0
158 _268_:X _268_:X 0
159 *7:6 *7:9 0
160 _315_:A1 _315_:A1 0
161 _315_:A1 *7:7 0
*END

*D_NET *8 0.0007498426434
*CONN
*I _289_:B1 I
*I _276_:B1 I
*I _276_:A1_N I
*I _269_:X O
*CAP
107 *8:1 0.00014298538739999998
108 _269_:X 0.00028423114272
109 _276_:A1_N 0.0002062676048
110 _289_:B1 0.00011635850848000001
111 *8:3 0
112 _276_:B1 0
*RES
162 *8:1 *8:2 1.5178571428571426
163 _269_:X *8:3 2.875
164 _276_:A1_N _276_:B1 2.0535714285714284
165 _289_:B1 _289_:B1 0.07589285714285714
166 _289_:B1 *8:4 0.9107142857142857
167 _276_:A1_N _276_:A1_N 0
168 _276_:A1_N *8:2 0
169 *8:3 *8:1 0
170 _269_:X _269_:X 0
171 _276_:B1 _276_:B1 0
172 _289_:B1 _289_:B1 0
*END

*D_NET *9 0.0006853088464
*CONN
*I _299_:A1 I
*I _274_:B1 I
*I _274_:A1_N I
*I _270_:X O
*CAP
113 _274_:B1 0.0002062676048
114 _274_:A1_N 0.0002062676048
115 _299_:A1 5.034052896000001e-05
116 *9:2 0.00022243310784000002
117 _270_:X 0
118 *9:1 0
*RES
173 _274_:B1 _270_:X 2.0535714285714284
174 _274_:A1_N _274_:B1 2.0535714285714284
175 _299_:A1 *9:1 0.4107142857142857
176 *9:2 *9:3 2.4285714285714284
177 _274_:B1 _274_:B1 0
178 _270_:X _270_:X 0
179 _274_:A1_N _274_:A1_N 0
180 _299_:A1 _299_:A1 0
181 *9:1 *9:2 0
182 _274_:B1 *9:3 0
*END

*D_NET *10 0.0006515763134399999
*CONN
*I _273_:A I
*I _271_:X O
*CAP
119 *10:1 0.00032321291168
120 *10:2 0.00032836340175999997
121 _271_:X 0
122 _273_:A 0
*RES
183 *10:1 _271_:X 3.2857142857142856
184 *10:2 *10:3 3.642857142857143
185 _271_:X _271_:X 0
186 *10:1 *10:2 0
187 _273_:A _273_:A 0
188 _273_:A *10:3 0
*END

*D_NET *11 0.0008853681812800001
*CONN
*I _299_:B1_N I
*I _273_:B I
*I _272_:X O
*CAP
123 *11:1 0.0004078111222
124 *11:3 0.00024524937376
125 *11:4 8.932229792e-05
126 *11:5 0.00014298538739999998
127 _299_:B1_N 0
128 _273_:B 0
129 _272_:X 0
*RES
189 *11:1 *11:2 4.553571428571428
190 *11:3 _273_:B 2.464285714285714
191 *11:4 _272_:X 0.8214285714285714
192 *11:5 *11:1 1.5178571428571426
193 _299_:B1_N _299_:B1_N 0
194 _299_:B1_N *11:1 0
195 *11:3 *11:2 0
196 _273_:B _273_:B 0
197 _272_:X _272_:X 0
198 *11:4 *11:5 0
*END

*D_NET *12 0.0009830056176000001
*CONN
*I _299_:A2 I
*I _274_:B2 I
*I _274_:A2_N I
*I _273_:X O
*CAP
130 *12:1 0.00022243310784000002
131 *12:3 0.0002062676048
132 _274_:A2_N 4.017137184e-05
133 *12:4 0.00012830406688
134 _299_:A2 4.017137184e-05
135 *12:5 5.034052896000001e-05
136 *12:7 4.640188412000001e-05
137 *12:8 0.00024891568132000004
138 _274_:B2 0
139 _273_:X 0
140 *12:6 0
*RES
199 *12:1 *12:2 2.4285714285714284
200 *12:3 _273_:X 2.0535714285714284
201 _274_:A2_N *12:4 0.30357142857142855
202 *12:4 _274_:B2 1.232142857142857
203 _299_:A2 *12:5 0.30357142857142855
204 *12:5 *12:6 0.4107142857142857
205 *12:7 *12:8 0.4107142857142857
206 *12:8 *12:1 2.7321428571428568
207 _274_:B2 _274_:B2 0
208 _274_:B2 *12:1 0
209 *12:3 *12:2 0
210 _273_:X _273_:X 0
211 _274_:A2_N _274_:A2_N 0
212 _299_:A2 _299_:A2 0
213 *12:6 *12:7 0
*END

*D_NET *13 0.0016568220401600002
*CONN
*I _289_:A2 I
*I _275_:B2 I
*I _275_:A2_N I
*I _274_:X O
*CAP
141 _275_:A2_N 0.00016847543872000001
142 _289_:A2 0.00040117644959999997
143 *13:2 4.640188412000001e-05
144 *13:4 5.034052896000001e-05
145 *13:5 0.0009904277387600001
146 _275_:B2 0
147 _274_:X 0
*RES
214 _275_:A2_N *13:1 0.30357142857142855
215 _289_:A2 *13:1 4.107142857142857
216 _275_:A2_N _275_:B2 1.232142857142857
217 *13:2 *13:3 0.4107142857142857
218 *13:4 _274_:X 0.4107142857142857
219 *13:5 *13:2 11.232142857142856
220 _275_:A2_N _275_:A2_N 0
221 _289_:A2 _289_:A2 0
222 _275_:B2 _275_:B2 0
223 _275_:A2_N *13:3 0
224 _274_:X _274_:X 0
225 *13:4 *13:5 0
*END

*D_NET *14 0.00108460778792
*CONN
*I _289_:B2 I
*I _276_:B2 I
*I _276_:A2_N I
*I _275_:X O
*CAP
148 _276_:B2 0.00024524937376
149 *14:2 0.00016946796088000002
150 _276_:A2_N 0.00012830406688
151 _289_:B2 7.102101632000001e-05
152 *14:5 0.00035406255616000004
153 *14:6 0.00011650281392
154 *14:1 0
155 _275_:X 0
*RES
226 _276_:B2 *14:1 2.464285714285714
227 *14:2 *14:3 1.8214285714285714
228 _276_:A2_N _276_:B2 1.232142857142857
229 _289_:B2 _289_:B2 0.09821428571428571
230 _289_:B2 *14:4 0.4107142857142857
231 *14:5 *14:4 0.20535714285714285
232 *14:5 _275_:X 3.2857142857142856
233 *14:6 *14:2 1.2142857142857142
234 _276_:B2 _276_:B2 0
235 *14:1 *14:3 0
236 _275_:X _275_:X 0
237 _275_:X *14:2 0
238 _276_:A2_N _276_:A2_N 0
239 _289_:B2 _289_:B2 0
240 _275_:X *14:6 0
*END

*D_NET *15 0.00060923285388
*CONN
*I _282_:A2 I
*I _277_:B2 I
*I _277_:A2_N I
*I _276_:X O
*CAP
156 *15:1 0.00011650281392
157 *15:3 0.00012830406688
158 _277_:A2_N 0.00012830406688
159 _277_:B2 4.017137184e-05
160 *15:2 0.00019595053436
161 _276_:X 0
162 _282_:A2 0
*RES
241 *15:1 *15:2 1.2142857142857142
242 *15:3 _276_:X 1.232142857142857
243 _277_:A2_N _277_:B2 1.232142857142857
244 _277_:B2 _277_:B2 0.30357142857142855
245 *15:2 *15:4 2.1249999999999996
246 _277_:B2 _277_:B2 0
247 _277_:B2 *15:2 0
248 *15:3 *15:1 0
249 _276_:X _276_:X 0
250 _277_:A2_N _277_:A2_N 0
251 _282_:A2 _282_:A2 0
252 _282_:A2 *15:4 0
*END

*D_NET *16 0.00075033069588
*CONN
*I _282_:B2 I
*I _278_:B2 I
*I _278_:A2_N I
*I _277_:X O
*CAP
163 *16:1 0.00016946796088000002
164 _277_:X 0.00016728583584
165 *16:4 8.932229792e-05
166 *16:2 0.00019595053436
167 _278_:B2 0.00012830406688
168 _282_:B2 0
169 *16:3 0
170 _278_:A2_N 0
*RES
253 *16:1 *16:2 1.8214285714285714
254 _277_:X *16:3 1.6428571428571428
255 *16:4 _278_:B2 0.8214285714285714
256 *16:2 *16:5 2.1249999999999996
257 _278_:B2 _278_:A2_N 1.232142857142857
258 _282_:B2 _282_:B2 0
259 _282_:B2 *16:2 0
260 *16:3 *16:1 0
261 _277_:X _277_:X 0
262 _278_:B2 _278_:B2 0
263 *16:4 *16:5 0
264 _278_:A2_N _278_:A2_N 0
*END

*D_NET *17 0.00102568103028
*CONN
*I _281_:A2 I
*I _279_:B2 I
*I _279_:A2_N I
*I _278_:X O
*CAP
171 _279_:A2_N 4.017137184e-05
172 _278_:X 0.00071422020416
173 *17:1 0.00012830406688
174 *17:2 0.00014298538739999998
175 _279_:B2 0
176 _281_:A2 0
177 *17:4 0
*RES
265 _279_:A2_N *17:1 0.30357142857142855
266 _278_:X *17:1 6.982142857142857
267 _278_:X _278_:X 0.30357142857142855
268 *17:1 _279_:B2 1.232142857142857
269 *17:2 *17:3 1.5178571428571426
270 _279_:A2_N _279_:A2_N 0
271 _278_:X _278_:X 0
272 _279_:B2 _279_:B2 0
273 _281_:A2 _281_:A2 0
274 _281_:A2 *17:3 0
275 *17:4 *17:2 0
*END

*D_NET *18 0.00072885194616
*CONN
*I _281_:B2 I
*I _280_:B2 I
*I _280_:A2_N I
*I _279_:X O
*CAP
178 *18:1 8.932229792e-05
179 *18:2 0.00016946796088000002
180 *18:4 5.034052896000001e-05
181 *18:5 0.00022243310784000002
182 _280_:B2 0.00019728805056
183 _279_:X 0
184 _281_:B2 0
185 _280_:A2_N 0
*RES
276 *18:1 _279_:X 0.8214285714285714
277 *18:2 *18:3 1.8214285714285714
278 *18:4 _280_:B2 0.4107142857142857
279 *18:5 *18:2 2.4285714285714284
280 _280_:B2 _280_:A2_N 1.232142857142857
281 _280_:B2 _280_:B2 0.6071428571428571
282 _279_:X _279_:X 0
283 *18:1 *18:2 0
284 _281_:B2 _281_:B2 0
285 _281_:B2 *18:3 0
286 _280_:B2 _280_:B2 0
287 *18:4 *18:5 0
288 _280_:A2_N _280_:A2_N 0
*END

*D_NET *19 0.0025455170783200004
*CONN
*I _306_:B1 I
*I _305_:B1 I
*I _305_:A1_N I
*I _281_:X O
*CAP
186 *19:1 0.00016728583584
187 *19:2 0.00038132854871999994
188 *19:4 0.00149266598048
189 _305_:B1 8.932229792e-05
190 _306_:B1 4.017137184e-05
191 *19:5 5.034052896000001e-05
192 *19:6 4.017137184e-05
193 *19:7 0.00028423114272
194 _305_:A1_N 0
195 _281_:X 0
196 *19:8 0
*RES
289 *19:1 _305_:A1_N 1.6428571428571428
290 *19:2 *19:3 4.249999999999999
291 *19:4 _281_:X 15.607142857142856
292 _305_:B1 *19:1 0.8214285714285714
293 _306_:B1 *19:5 0.30357142857142855
294 *19:5 *19:6 0.4107142857142857
295 *19:6 *19:7 0.30357142857142855
296 *19:7 *19:8 2.875
297 _305_:A1_N _305_:A1_N 0
298 *19:1 *19:2 0
299 *19:4 *19:3 0
300 _281_:X _281_:X 0
301 _305_:B1 _305_:B1 0
302 _306_:B1 _306_:B1 0
303 *19:8 *19:9 0
*END

*D_NET *20 0.00111733336656
*CONN
*I _306_:A1 I
*I _304_:B1 I
*I _304_:A1_N I
*I _282_:X O
*CAP
197 *20:1 0.00011650281392
198 *20:3 0.00040117644959999997
199 _304_:A1_N 0.00024643897664
200 _304_:B1 6.898398368e-05
201 _306_:A1 0.00028423114272
202 _282_:X 0
*RES
304 *20:1 *20:2 1.2142857142857142
305 *20:3 _282_:X 4.107142857142857
306 _304_:A1_N _304_:B1 2.0535714285714284
307 _304_:B1 _304_:B1 0.6071428571428571
308 _306_:A1 _304_:A1_N 2.875
309 _304_:A1_N _304_:A1_N 0.30357142857142855
310 _304_:B1 _304_:B1 0
311 _304_:B1 *20:2 0
312 *20:3 *20:1 0
313 _282_:X _282_:X 0
314 _304_:A1_N _304_:A1_N 0
315 _306_:A1 _306_:A1 0
*END

*D_NET *21 0.00185451650296
*CONN
*I _330_:A1 I
*I _288_:B1 I
*I _288_:A1_N I
*I _283_:X O
*CAP
203 _330_:A1 0.00044015821855999997
204 *21:1 4.017137184e-05
205 *21:2 0.00086895767712
206 _288_:B1 8.932229792e-05
207 *21:4 0.00016946796088000002
208 *21:6 0.00024643897664
209 _283_:X 0
210 *21:3 0
211 *21:7 0
212 _288_:A1_N 0
*RES
316 _330_:A1 *21:1 4.517857142857142
317 *21:1 *21:2 0.30357142857142855
318 *21:2 _283_:X 9.035714285714285
319 _288_:B1 *21:3 0.8214285714285714
320 *21:4 *21:5 1.8214285714285714
321 *21:6 _288_:A1_N 0.30357142857142855
322 *21:6 _288_:B1 2.0535714285714284
323 _330_:A1 _330_:A1 0
324 _283_:X _283_:X 0
325 _288_:B1 _288_:B1 0
326 *21:3 *21:5 0
327 *21:7 *21:4 0
328 _288_:A1_N _288_:A1_N 0
*END

*D_NET *22 0.00106347319636
*CONN
*I _287_:A I
*I _284_:X O
*CAP
213 *22:1 5.034052896000001e-05
214 *22:2 0.00014298538739999998
215 *22:4 0.00087014728
216 _284_:X 0
217 *22:5 0
218 _287_:A 0
*RES
329 *22:1 _284_:X 0.4107142857142857
330 *22:2 *22:3 1.5178571428571426
331 *22:4 *22:5 8.625
332 *22:4 _287_:A 0.30357142857142855
333 _284_:X _284_:X 0
334 *22:1 *22:2 0
335 *22:5 *22:3 0
336 _287_:A _287_:A 0
*END

*D_NET *23 0.008983151442340001
*CONN
*I _441_:A2 I
*I _398_:C I
*I _371_:B I
*I _310_:B I
*I _286_:D I
*I _285_:X O
*CAP
219 *23:1 0.00016728583584
220 *23:2 0.0014406314879200001
221 *23:4 0.0002062676048
222 _286_:D 0.0014147024425599998
223 *23:5 4.017137184e-05
224 *23:6 0.00012830406688
225 *23:8 0.00211756388672
226 *23:9 0.00014298538739999998
227 *23:11 0.00040117644959999997
228 *23:13 2.3813806740000006e-05
229 *23:15 0.0010888615854
230 *23:17 0.0018113875166400003
231 _441_:A2 0
232 *23:12 0
233 _285_:X 0
234 _310_:B 0
235 *23:20 0
236 _371_:B 0
237 _398_:C 0
238 *23:14 0
239 *23:21 0
*RES
337 *23:1 _441_:A2 1.6428571428571428
338 *23:2 *23:3 16.392857142857142
339 *23:4 _285_:X 2.0535714285714284
340 _286_:D *23:5 14.785714285714283
341 *23:5 *23:6 0.30357142857142855
342 *23:6 *23:7 1.232142857142857
343 *23:8 *23:7 0.30357142857142855
344 *23:9 *23:10 1.5178571428571426
345 *23:11 _286_:D 4.107142857142857
346 *23:8 *23:12 21.76785714285714
347 *23:13 *23:14 0.15178571428571427
348 *23:15 *23:16 1.9458000000000002
349 *23:17 *23:18 20.642857142857142
350 _441_:A2 _441_:A2 0
351 *23:1 *23:2 0
352 *23:12 *23:3 0
353 _285_:X _285_:X 0
354 *23:4 *23:19 0
355 _286_:D _286_:D 0
356 _310_:B _310_:B 0
357 _310_:B *23:9 0
358 *23:11 *23:10 0
359 *23:20 *23:18 0
360 _371_:B _371_:B 0
361 _371_:B *23:17 0
362 _398_:C _398_:C 0
363 _398_:C *23:13 0
364 *23:14 *23:16 0
365 *23:21 *23:15 0
*END

*D_NET *24 0.0004536991036
*CONN
*I _330_:B1_N I
*I _287_:B I
*I _286_:X O
*CAP
240 _287_:B 0.00028423114272
241 *24:1 0.00016946796088000002
242 _330_:B1_N 0
243 _286_:X 0
244 *24:3 0
*RES
366 _287_:B _330_:B1_N 2.875
367 *24:1 *24:2 1.8214285714285714
368 _330_:B1_N _330_:B1_N 0
369 _287_:B _287_:B 0
370 _286_:X _286_:X 0
371 _286_:X *24:1 0
372 *24:3 *24:2 0
*END

*D_NET *25 0.0009442470185199999
*CONN
*I _330_:A2 I
*I _288_:B2 I
*I _288_:A2_N I
*I _287_:X O
*CAP
245 *25:1 0.0001095790704
246 _287_:X 0.0004791399875199999
247 *25:3 0.00019595053436
248 _330_:A2 3.127335936e-05
249 _288_:A2_N 0.00012830406688
250 _288_:B2 0
*RES
373 *25:1 _330_:A2 0.6116071428571428
374 *25:1 *25:2 0.30357142857142855
375 _287_:X *25:2 4.928571428571428
376 *25:3 *25:4 2.1249999999999996
377 _330_:A2 _330_:A2 0.20982142857142855
378 _288_:A2_N _288_:B2 1.232142857142857
379 _330_:A2 _330_:A2 0
380 _287_:X _287_:X 0
381 _288_:A2_N _288_:A2_N 0
382 _288_:A2_N *25:4 0
383 _330_:A2 *25:3 0
384 _288_:B2 _288_:B2 0
*END

*D_NET *26 0.0011513835189600002
*CONN
*I _307_:B1 I
*I _303_:B1 I
*I _303_:A1_N I
*I _288_:X O
*CAP
251 _303_:B1 0.0002062676048
252 *26:1 4.017137184e-05
253 *26:2 0.00046077626916000004
254 *26:4 8.932229792e-05
255 *26:5 0.00035484597524
256 _303_:A1_N 0
257 _307_:B1 0
258 _288_:X 0
*RES
385 _303_:B1 *26:1 2.0535714285714284
386 *26:1 _303_:A1_N 0.30357142857142855
387 *26:2 *26:3 5.160714285714286
388 *26:4 _303_:B1 0.8214285714285714
389 *26:5 *26:6 3.946428571428571
390 _303_:A1_N _303_:A1_N 0
391 _303_:A1_N *26:6 0
392 _303_:B1 _303_:B1 0
393 _307_:B1 _307_:B1 0
394 _307_:B1 *26:3 0
395 *26:4 *26:2 0
396 _288_:X _288_:X 0
397 _288_:X *26:5 0
*END

*D_NET *27 0.0018406797912800003
*CONN
*I _307_:A1 I
*I _302_:B1 I
*I _302_:A1_N I
*I _289_:X O
*CAP
259 _302_:B1 0.00016728583584
260 *27:2 0.00016946796088000002
261 *27:4 0.00086895767712
262 _302_:A1_N 0.0002062676048
263 _307_:A1 0.0002062676048
264 *27:6 0.00022243310784000002
265 *27:1 0
266 _289_:X 0
267 *27:5 0
268 *27:8 0
*RES
398 _302_:B1 *27:1 1.6428571428571428
399 *27:2 *27:3 1.8214285714285714
400 *27:4 _289_:X 9.035714285714285
401 _302_:A1_N _302_:B1 2.0535714285714284
402 _307_:A1 *27:5 2.0535714285714284
403 *27:6 *27:7 2.4285714285714284
404 _302_:B1 _302_:B1 0
405 *27:1 *27:3 0
406 *27:4 *27:2 0
407 _289_:X _289_:X 0
408 _302_:A1_N _302_:A1_N 0
409 _307_:A1 _307_:A1 0
410 *27:5 *27:7 0
411 *27:8 *27:6 0
*END

*D_NET *28 0.004105993881560001
*CONN
*I _400_:A I
*I _370_:B1 I
*I _353_:B1 I
*I _316_:B1 I
*I _291_:A I
*I _290_:X O
*CAP
269 _291_:A 5.034052896000001e-05
270 *28:2 4.017137184e-05
271 *28:3 0.0005960852944
272 *28:4 0.00022243310784000002
273 *28:6 0.0002062676048
274 *28:7 4.017137184e-05
275 *28:8 0.00024524937376
276 *28:5 0.0014671140614000001
277 *28:10 0.00032321291168
278 *28:11 0.00022243310784000002
279 _316_:B1 1.1782474880000001e-05
280 *28:13 0.00024643897664
281 *28:9 0.00043429369568000003
282 *28:1 0
283 _370_:B1 0
284 _400_:A 0
285 _353_:B1 0
286 _290_:X 0
287 *28:15 0
*RES
412 _291_:A *28:1 0.4107142857142857
413 *28:2 _370_:B1 0.30357142857142855
414 *28:3 *28:2 6.160714285714286
415 *28:4 *28:5 2.4285714285714284
416 *28:6 _353_:B1 2.0535714285714284
417 *28:7 *28:6 0.30357142857142855
418 *28:8 *28:7 2.464285714285714
419 *28:5 *28:9 16.69642857142857
420 *28:10 _290_:X 3.2857142857142856
421 *28:11 *28:12 2.4285714285714284
422 _316_:B1 _316_:B1 0.004464285714285714
423 *28:13 _316_:B1 0.30357142857142855
424 *28:13 *28:10 2.0535714285714284
425 *28:9 *28:14 4.857142857142857
426 _291_:A _291_:A 0
427 *28:1 *28:14 0
428 _370_:B1 _370_:B1 0
429 *28:3 *28:5 0
430 _400_:A _400_:A 0
431 _400_:A *28:4 0
432 _353_:B1 _353_:B1 0
433 *28:8 *28:9 0
434 _290_:X _290_:X 0
435 *28:10 *28:12 0
436 *28:15 *28:11 0
437 _316_:B1 _316_:B1 0
*END

*D_NET *29 0.00215654524456
*CONN
*I _329_:B1 I
*I _298_:B1 I
*I _298_:A1_N I
*I _291_:X O
*CAP
288 *29:1 0.00014898455423999999
289 *29:2 0.0002753982548
290 *29:4 0.00012830406688
291 *29:6 0.0014548738143999999
292 *29:5 4.017137184e-05
293 *29:7 0.0001088131824
294 _298_:B1 0
295 _329_:B1 0
296 _298_:A1_N 0
297 _291_:X 0
*RES
438 *29:1 _298_:B1 0.30357142857142855
439 *29:2 *29:3 3.035714285714285
440 *29:4 _298_:B1 1.232142857142857
441 *29:1 *29:5 1.0267857142857142
442 *29:6 _298_:A1_N 0.30357142857142855
443 *29:6 _291_:X 14.785714285714283
444 *29:5 *29:7 0.30357142857142855
445 *29:7 *29:6 1.0267857142857142
446 _298_:B1 _298_:B1 0
447 _329_:B1 _329_:B1 0
448 _329_:B1 *29:3 0
449 *29:4 *29:2 0
450 _298_:A1_N _298_:A1_N 0
451 _291_:X _291_:X 0
*END

*D_NET *30 0.00235813668236
*CONN
*I _368_:A I
*I _354_:A I
*I _353_:A1 I
*I _316_:A2 I
*I _293_:B I
*I _292_:X O
*CAP
298 _354_:A 0.00028423114272
299 *30:2 0.00014298538739999998
300 *30:4 0.00016946796088000002
301 _316_:A2 0.0003621946806399999
302 *30:7 0.0004803295904
303 _368_:A 5.034052896000001e-05
304 *30:9 0.00016946796088000002
305 *30:10 0.0006991194304800001
306 *30:1 0
307 _292_:X 0
308 _353_:A1 0
309 *30:6 0
310 _293_:B 0
311 *30:8 0
*RES
452 _354_:A *30:1 2.875
453 *30:2 *30:3 1.5178571428571426
454 *30:4 *30:5 1.8214285714285714
455 _316_:A2 *30:6 3.6964285714285707
456 *30:7 _293_:B 4.517857142857142
457 *30:7 _353_:A1 0.30357142857142855
458 _368_:A *30:8 0.4107142857142857
459 *30:9 *30:10 1.8214285714285714
460 *30:10 *30:2 7.892857142857142
461 _354_:A _354_:A 0
462 *30:1 *30:2 0
463 _292_:X _292_:X 0
464 _292_:X *30:3 0
465 _353_:A1 _353_:A1 0
466 _353_:A1 *30:4 0
467 *30:6 *30:5 0
468 _316_:A2 _316_:A2 0
469 _293_:B _293_:B 0
470 _293_:B *30:10 0
471 _368_:A _368_:A 0
472 *30:8 *30:9 0
*END

*D_NET *31 0.0038251180248000003
*CONN
*I _329_:A1 I
*I _297_:B1 I
*I _297_:A1_N I
*I _293_:X O
*CAP
312 *31:1 0.0016006317331200002
313 _297_:A1_N 0.0002062676048
314 *31:2 4.017137184e-05
315 *31:3 8.932229792e-05
316 *31:4 0.00043429369568000003
317 *31:6 0.00011650281392
318 *31:8 0.0012977571356799999
319 *31:10 4.017137184e-05
320 _297_:B1 0
321 _329_:A1 0
322 *31:11 0
323 _293_:X 0
324 *31:9 0
*RES
473 *31:1 _297_:B1 0.6071428571428571
474 _297_:A1_N _297_:B1 2.0535714285714284
475 *31:2 _329_:A1 0.30357142857142855
476 *31:3 *31:2 0.8214285714285714
477 *31:4 *31:5 4.857142857142857
478 *31:6 *31:7 1.2142857142857142
479 *31:8 *31:9 13.553571428571427
480 *31:10 *31:8 0.30357142857142855
481 *31:1 *31:10 16.017857142857142
482 _297_:B1 _297_:B1 0
483 _297_:A1_N _297_:A1_N 0
484 _329_:A1 _329_:A1 0
485 *31:3 *31:5 0
486 *31:11 *31:4 0
487 _293_:X _293_:X 0
488 _293_:X *31:6 0
489 *31:9 *31:7 0
*END

*D_NET *32 0.00347620877964
*CONN
*I _296_:A_N I
*I _294_:X O
*CAP
325 *32:1 0.00012830406688
326 *32:2 0.00047016043327999994
327 *32:4 0.0019214654390400001
328 _296_:A_N 4.017137184e-05
329 *32:5 0.0004023660524799999
330 *32:8 0.00051374141612
331 _294_:X 0
332 *32:7 0
*RES
490 *32:1 _294_:X 1.232142857142857
491 *32:2 *32:3 0.6071428571428571
492 *32:4 *32:3 20.124999999999996
493 _296_:A_N *32:4 0.30357142857142855
494 *32:5 *32:6 0.30357142857142855
495 *32:5 *32:7 3.6964285714285707
496 *32:2 *32:6 4.107142857142857
497 *32:8 *32:9 5.767857142857142
498 _294_:X _294_:X 0
499 *32:1 *32:8 0
500 _296_:A_N _296_:A_N 0
501 *32:7 *32:9 0
*END

*D_NET *33 0.0035840612661200005
*CONN
*I _359_:A1 I
*I _327_:B1 I
*I _327_:A1_N I
*I _296_:B I
*I _295_:X O
*CAP
333 _327_:B1 9.051190080000001e-05
334 *33:2 2.3813806740000006e-05
335 _327_:A1_N 4.017137184e-05
336 *33:4 0.0002062676048