
.SUBCKT sky130_fd_sc_hd__dlrbp_2 D GATE RESET_B VGND VNB VPB VPWR Q Q_N
MI635 clkpos clkneg VPWR VPB pfet_01v8_hvt m=1 w=0.64 l=0.15 mult=1
+ sa=0.265 sb=0.265 sd=0.28 topography=normal area=0.063 perim=1.14
MI648 Q_N net125 VPWR VPB pfet_01v8_hvt m=2 w=1.0 l=0.15 mult=1
+ sa=0.265 sb=0.265 sd=0.28 topography=normal area=0.063 perim=1.14
MI17 M0 clkneg net61 VPB pfet_01v8_hvt m=1 w=0.42 l=0.15 mult=1
+ sa=0.265 sb=0.265 sd=0.28 topography=normal area=0.063 perim=1.14
MI646 net125 m1 VPWR VPB pfet_01v8_hvt m=1 w=0.64 l=0.15 mult=1
+ sa=0.265 sb=0.265 sd=0.28 topography=normal area=0.063 perim=1.14
MI650 Q m1 VPWR VPB pfet_01v8_hvt m=2 w=1.0 l=0.15 mult=1 sa=0.265
+ sb=0.265 sd=0.28 topography=normal area=0.063 perim=1.14
MI633 clkneg GATE VPWR VPB pfet_01v8_hvt m=1 w=0.64 l=0.15 mult=1
+ sa=0.265 sb=0.265 sd=0.28 topography=normal area=0.063 perim=1.14
MI658 m1 RESET_B VPWR VPB pfet_01v8_hvt m=1 w=1.0 l=0.15 mult=1
+ sa=0.265 sb=0.265 sd=0.28 topography=normal area=0.063 perim=1.14
MI18 net61 db VPWR VPB pfet_01v8_hvt m=1 w=0.64 l=0.15 mult=1 sa=0.265
+ sb=0.265 sd=0.28 topography=normal area=0.063 perim=1.14
MI653 net57 m1 VPWR VPB pfet_01v8_hvt m=1 w=0.42 l=0.15 mult=1
+ sa=0.265 sb=0.265 sd=0.28 topography=normal area=0.063 perim=1.14
MI651 M0 clkpos net57 VPB pfet_01v8_hvt m=1 w=0.42 l=0.15 mult=1
+ sa=0.265 sb=0.265 sd=0.28 topography=normal area=0.063 perim=1.14
MI655 m1 M0 VPWR VPB pfet_01v8_hvt m=1 w=1.0 l=0.15 mult=1 sa=0.265
+ sb=0.265 sd=0.28 topography=normal area=0.063 perim=1.14
MI638 db D VPWR VPB pfet_01v8_hvt m=1 w=0.64 l=0.15 mult=1 sa=0.265
+ sb=0.265 sd=0.28 topography=normal area=0.063 perim=1.14
MI634 clkneg GATE VGND VNB nfet_01v8 m=1 w=0.42 l=0.15 mult=1 sa=0.265
+ sb=0.265 sd=0.28 topography=normal area=0.063 perim=1.14
MI647 Q_N net125 VGND VNB nfet_01v8 m=2 w=0.65 l=0.15 mult=1 sa=0.265
+ sb=0.265 sd=0.28 topography=normal area=0.063 perim=1.14
MI649 Q m1 VGND VNB nfet_01v8 m=2 w=0.65 l=0.15 mult=1 sa=0.265
+ sb=0.265 sd=0.28 topography=normal area=0.063 perim=1.14
MI645 net125 m1 VGND VNB nfet_01v8 m=1 w=0.42 l=0.15 mult=1 sa=0.265
+ sb=0.265 sd=0.28 topography=normal area=0.063 perim=1.14
MI657 net108 RESET_B VGND VNB nfet_01v8 m=1 w=0.65 l=0.15 mult=1
+ sa=0.265 sb=0.265 sd=0.28 topography=normal area=0.063 perim=1.14
MI652 M0 clkneg net116 VNB nfet_01v8 m=1 w=0.36 l=0.15 mult=1 sa=0.265
+ sb=0.265 sd=0.28 topography=normal area=0.063 perim=1.14
MI654 net116 m1 VGND VNB nfet_01v8 m=1 w=0.42 l=0.15 mult=1 sa=0.265
+ sb=0.265 sd=0.28 topography=normal area=0.063 perim=1.14
MI656 m1 M0 net108 VNB nfet_01v8 m=1 w=0.65 l=0.15 mult=1 sa=0.265
+ sb=0.265 sd=0.28 topography=normal area=0.063 perim=1.14
MI636 clkpos clkneg VGND VNB nfet_01v8 m=1 w=0.42 l=0.15 mult=1
+ sa=0.265 sb=0.265 sd=0.28 topography=normal area=0.063 perim=1.14
MI637 db D VGND VNB nfet_01v8 m=1 w=0.42 l=0.15 mult=1 sa=0.265
+ sb=0.265 sd=0.28 topography=normal area=0.063 perim=1.14
MI19 M0 clkpos net96 VNB nfet_01v8 m=1 w=0.36 l=0.15 mult=1 sa=0.265
+ sb=0.265 sd=0.28 topography=normal area=0.063 perim=1.14
MI20 net96 db VGND VNB nfet_01v8 m=1 w=0.42 l=0.15 mult=1 sa=0.265
+ sb=0.265 sd=0.28 topography=normal area=0.063 perim=1.14
.ENDS




.SUBCKT sky130_fd_sc_hd__dlrbp_1 D GATE RESET_B VGND VNB VPB VPWR Q Q_N
MI635 clkpos clkneg VPWR VPB pfet_01v8_hvt m=1 w=0.64 l=0.15 mult=1
+ sa=0.265 sb=0.265 sd=0.28 topography=normal area=0.063 perim=1.14
MI648 Q_N net125 VPWR VPB pfet_01v8_hvt m=1 w=1.0 l=0.15 mult=1
+ sa=0.265 sb=0.265 sd=0.28 topography=normal area=0.063 perim=1.14
MI17 M0 clkneg net61 VPB pfet_01v8_hvt m=1 w=0.42 l=0.15 mult=1
+ sa=0.265 sb=0.265 sd=0.28 topography=normal area=0.063 perim=1.14
MI646 net125 m1 VPWR VPB pfet_01v8_hvt m=1 w=0.64 l=0.15 mult=1
+ sa=0.265 sb=0.265 sd=0.28 topography=normal area=0.063 perim=1.14
MI650 Q m1 VPWR VPB pfet_01v8_hvt m=1 w=1.0 l=0.15 mult=1 sa=0.265
+ sb=0.265 sd=0.28 topography=normal area=0.063 perim=1.14
MI633 clkneg GATE VPWR VPB pfet_01v8_hvt m=1 w=0.64 l=0.15 mult=1
+ sa=0.265 sb=0.265 sd=0.28 topography=normal area=0.063 perim=1.14
MI658 m1 RESET_B VPWR VPB pfet_01v8_hvt m=1 w=1.0 l=0.15 mult=1
+ sa=0.265 sb=0.265 sd=0.28 topography=normal area=0.063 perim=1.14
MI18 net61 db VPWR VPB pfet_01v8_hvt m=1 w=0.64 l=0.15 mult=1 sa=0.265
+ sb=0.265 sd=0.28 topography=normal area=0.063 perim=1.14
MI653 net57 m1 VPWR VPB pfet_01v8_hvt m=1 w=0.42 l=0.15 mult=1
+ sa=0.265 sb=0.265 sd=0.28 topography=normal area=0.063 perim=1.14
MI651 M0 clkpos net57 VPB pfet_01v8_hvt m=1 w=0.42 l=0.15 mult=1
+ sa=0.265 sb=0.265 sd=0.28 topography=normal area=0.063 perim=1.14
MI655 m1 M0 VPWR VPB pfet_01v8_hvt m=1 w=1.0 l=0.15 mult=1 sa=0.265
+ sb=0.265 sd=0.28 topography=normal area=0.063 perim=1.14
MI638 db D VPWR VPB pfet_01v8_hvt m=1 w=0.64 l=0.15 mult=1 sa=0.265
+ sb=0.265 sd=0.28 topography=normal area=0.063 perim=1.14
MI634 clkneg GATE VGND VNB nfet_01v8 m=1 w=0.42 l=0.15 mult=1 sa=0.265
+ sb=0.265 sd=0.28 topography=normal area=0.063 perim=1.14
MI647 Q_N net125 VGND VNB nfet_01v8 m=1 w=0.65 l=0.15 mult=1 sa=0.265
+ sb=0.265 sd=0.28 topography=normal area=0.063 perim=1.14
MI649 Q m1 VGND VNB nfet_01v8 m=1 w=0.65 l=0.15 mult=1 sa=0.265
+ sb=0.265 sd=0.28 topography=normal area=0.063 perim=1.14
MI645 net125 m1 VGND VNB nfet_01v8 m=1 w=0.42 l=0.15 mult=1 sa=0.265
+ sb=0.265 sd=0.28 topography=normal area=0.063 perim=1.14
MI657 net121 RESET_B VGND VNB nfet_01v8 m=1 w=0.65 l=0.15 mult=1
+ sa=0.265 sb=0.265 sd=0.28 topography=normal area=0.063 perim=1.14
MI652 M0 clkneg net116 VNB nfet_01v8 m=1 w=0.36 l=0.15 mult=1 sa=0.265
+ sb=0.265 sd=0.28 topography=normal area=0.063 perim=1.14
MI654 net116 m1 VGND VNB nfet_01v8 m=1 w=0.42 l=0.15 mult=1 sa=0.265
+ sb=0.265 sd=0.28 topography=normal area=0.063 perim=1.14
MI656 m1 M0 net121 VNB nfet_01v8 m=1 w=0.65 l=0.15 mult=1 sa=0.265
+ sb=0.265 sd=0.28 topography=normal area=0.063 perim=1.14
MI636 clkpos clkneg VGND VNB nfet_01v8 m=1 w=0.42 l=0.15 mult=1
+ sa=0.265 sb=0.265 sd=0.28 topography=normal area=0.063 perim=1.14
MI637 db D VGND VNB nfet_01v8 m=1 w=0.42 l=0.15 mult=1 sa=0.265
+ sb=0.265 sd=0.28 topography=normal area=0.063 perim=1.14
MI19 M0 clkpos net96 VNB nfet_01v8 m=1 w=0.36 l=0.15 mult=1 sa=0.265
+ sb=0.265 sd=0.28 topography=normal area=0.063 perim=1.14
MI20 net96 db VGND VNB nfet_01v8 m=1 w=0.42 l=0.15 mult=1 sa=0.265
+ sb=0.265 sd=0.28 topography=normal area=0.063 perim=1.14
.ENDS




.SUBCKT sky130_fd_sc_hd__bufbuf_8 A VGND VNB VPB VPWR X
MMIN1 Ab A VGND VNB nfet_01v8 m=1 w=0.42 l=0.15 mult=1 sa=0.265
+ sb=0.265 sd=0.28 topography=normal area=0.063 perim=1.14
MMIN2 Abb Ab VGND VNB nfet_01v8 m=1 w=0.65 l=0.15 mult=1 sa=0.265
+ sb=0.265 sd=0.28 topography=normal area=0.063 perim=1.14
MMIN3 Abbb Abb VGND VNB nfet_01v8 m=3 w=0.65 l=0.15 mult=1 sa=0.265
+ sb=0.265 sd=0.28 topography=normal area=0.063 perim=1.14
MMIN4 X Abbb VGND VNB nfet_01v8 m=8 w=0.65 l=0.15 mult=1 sa=0.265
+ sb=0.265 sd=0.28 topography=normal area=0.063 perim=1.14
MMIP4 X Abbb VPWR VPB pfet_01v8_hvt m=8 w=1.0 l=0.15 mult=1 sa=0.265
+ sb=0.265 sd=0.28 topography=normal area=0.063 perim=1.14
MMIP1 Ab A VPWR VPB pfet_01v8_hvt m=1 w=0.64 l=0.15 mult=1 sa=0.265
+ sb=0.265 sd=0.28 topography=normal area=0.063 perim=1.14
MMIP2 Abb Ab VPWR VPB pfet_01v8_hvt m=1 w=1.0 l=0.15 mult=1 sa=0.265
+ sb=0.265 sd=0.28 topography=normal area=0.063 perim=1.14
MI5 Abbb Abb VPWR VPB pfet_01v8_hvt m=3 w=1.0 l=0.15 mult=1 sa=0.265
+ sb=0.265 sd=0.28 topography=normal area=0.063 perim=1.14
.ENDS




.SUBCKT sky130_fd_sc_hd__bufbuf_16 A VGND VNB VPB VPWR X
MMIN1 Ab A VGND VNB nfet_01v8 m=1 w=0.65 l=0.15 mult=1 sa=0.265
+ sb=0.265 sd=0.28 topography=normal area=0.063 perim=1.14
MMIN2 Abb Ab VGND VNB nfet_01v8 m=3 w=0.65 l=0.15 mult=1 sa=0.265
+ sb=0.265 sd=0.28 topography=normal area=0.063 perim=1.14
MMIN3 Abbb Abb VGND VNB nfet_01v8 m=6 w=0.65 l=0.15 mult=1 sa=0.265
+ sb=0.265 sd=0.28 topography=normal area=0.063 perim=1.14
MMIN4 X Abbb VGND VNB nfet_01v8 m=16 w=0.65 l=0.15 mult=1 sa=0.265
+ sb=0.265 sd=0.28 topography=normal area=0.063 perim=1.14
MMIP4 X Abbb VPWR VPB pfet_01v8_hvt m=16 w=1.0 l=0.15 mult=1 sa=0.265
+ sb=0.265 sd=0.28 topography=normal area=0.063 perim=1.14
MMIP1 Ab A VPWR VPB pfet_01v8_hvt m=1 w=1.0 l=0.15 mult=1 sa=0.265
+ sb=0.265 sd=0.28 topography=normal area=0.063 perim=1.14
MMIP2 Abb Ab VPWR VPB pfet_01v8_hvt m=3 w=1.0 l=0.15 mult=1 sa=0.265
+ sb=0.265 sd=0.28 topography=normal area=0.063 perim=1.14
MI5 Abbb Abb VPWR VPB pfet_01v8_hvt m=6 w=1.0 l=0.15 mult=1 sa=0.265
+ sb=0.265 sd=0.28 topography=normal area=0.063 perim=1.14
.ENDS




.SUBCKT sky130_fd_sc_hd__o22a_4 A1 A2 B1 B2 VGND VNB VPB VPWR X
MMPA0 VPWR A1 sndA1 VPB pfet_01v8_hvt m=2 w=1.0 l=0.15 mult=1 sa=0.265
+ sb=0.265 sd=0.28 topography=normal area=0.063 perim=1.14
MMPA1 sndA1 A2 y VPB pfet_01v8_hvt m=2 w=1.0 l=0.15 mult=1 sa=0.265
+ sb=0.265 sd=0.28 topography=normal area=0.063 perim=1.14
MMPB0 VPWR B1 sndB1 VPB pfet_01v8_hvt m=2 w=1.0 l=0.15 mult=1 sa=0.265
+ sb=0.265 sd=0.28 topography=normal area=0.063 perim=1.14
MMPB1 sndB1 B2 y VPB pfet_01v8_hvt m=2 w=1.0 l=0.15 mult=1 sa=0.265
+ sb=0.265 sd=0.28 topography=normal area=0.063 perim=1.14
MMIPX X y VPWR VPB pfet_01v8_hvt m=4 w=1.0 l=0.15 mult=1 sa=0.265
+ sb=0.265 sd=0.28 topography=normal area=0.063 perim=1.14
MMNA0 pndA A1 VGND VNB nfet_01v8 m=2 w=0.65 l=0.15 mult=1 sa=0.265
+ sb=0.265 sd=0.28 topography=normal area=0.063 perim=1.14
MMNA1 pndA A2 VGND VNB nfet_01v8 m=2 w=0.65 l=0.15 mult=1 sa=0.265
+ sb=0.265 sd=0.28 topography=normal area=0.063 perim=1.14
MMNB0 y B1 pndA VNB nfet_01v8 m=2 w=0.65 l=0.15 mult=1 sa=0.265
+ sb=0.265 sd=0.28 topography=normal area=0.063 perim=1.14
MMNB1 y B2 pndA VNB nfet_01v8 m=2 w=0.65 l=0.15 mult=1 sa=0.265
+ sb=0.265 sd=0.28 topography=normal area=0.063 perim=1.14
MMINX X y VGND VNB nfet_01v8 m=4 w=0.65 l=0.15 mult=1 sa=0.265
+ sb=0.265 sd=0.28 topography=normal area=0.063 perim=1.14
.ENDS




.SUBCKT sky130_fd_sc_hd__o22a_2 A1 A2 B1 B2 VGND VNB VPB VPWR X
MMPA0 VPWR A1 sndA1 VPB pfet_01v8_hvt m=1 w=1.0 l=0.15 mult=1 sa=0.265
+ sb=0.265 sd=0.28 topography=normal area=0.063 perim=1.14
MMPA1 sndA1 A2 y VPB pfet_01v8_hvt m=1 w=1.0 l=0.15 mult=1 sa=0.265
+ sb=0.265 sd=0.28 topography=normal area=0.063 perim=1.14
MMPB0 VPWR B1 sndB1 VPB pfet_01v8_hvt m=1 w=1.0 l=0.15 mult=1 sa=0.265
+ sb=0.265 sd=0.28 topography=normal area=0.063 perim=1.14
MMPB1 sndB1 B2 y VPB pfet_01v8_hvt m=1 w=1.0 l=0.15 mult=1 sa=0.265
+ sb=0.265 sd=0.28 topography=normal area=0.063 perim=1.14
MMIPX X y VPWR VPB pfet_01v8_hvt m=2 w=1.0 l=0.15 mult=1 sa=0.265
+ sb=0.265 sd=0.28 topography=normal area=0.063 perim=1.14
MMNA0 pndA A1 VGND VNB nfet_01v8 m=1 w=0.65 l=0.15 mult=1 sa=0.265
+ sb=0.265 sd=0.28 topography=normal area=0.063 perim=1.14
MMNA1 pndA A2 VGND VNB nfet_01v8 m=1 w=0.65 l=0.15 mult=1 sa=0.265
+ sb=0.265 sd=0.28 topography=normal area=0.063 perim=1.14
MMNB0 y B1 pndA VNB nfet_01v8 m=1 w=0.65 l=0.15 mult=1 sa=0.265
+ sb=0.265 sd=0.28 topography=normal area=0.063 perim=1.14
MMNB1 y B2 pndA VNB nfet_01v8 m=1 w=0.65 l=0.15 mult=1 sa=0.265
+ sb=0.265 sd=0.28 topography=normal area=0.063 perim=1.14
MMINX X y VGND VNB nfet_01v8 m=2 w=0.65 l=0.15 mult=1 sa=0.265
+ sb=0.265 sd=0.28 topography=normal area=0.063 perim=1.14
.ENDS




.SUBCKT sky130_fd_sc_hd__o22a_1 A1 A2 B1 B2 VGND VNB VPB VPWR X
MMPA0 VPWR A1 sndA1 VPB pfet_01v8_hvt m=1 w=1.0 l=0.15 mult=1 sa=0.265
+ sb=0.265 sd=0.28 topography=normal area=0.063 perim=1.14
MMPA1 sndA1 A2 y VPB pfet_01v8_hvt m=1 w=1.0 l=0.15 mult=1 sa=0.265
+ sb=0.265 sd=0.28 topography=normal area=0.063 perim=1.14
MMPB0 VPWR B1 sndB1 VPB pfet_01v8_hvt m=1 w=1.0 l=0.15 mult=1 sa=0.265
+ sb=0.265 sd=0.28 topography=normal area=0.063 perim=1.14
MMPB1 sndB1 B2 y VPB pfet_01v8_hvt m=1 w=1.0 l=0.15 mult=1 sa=0.265
+ sb=0.265 sd=0.28 topography=normal area=0.063 perim=1.14
MMIPX X y VPWR VPB pfet_01v8_hvt m=1 w=1.0 l=0.15 mult=1 sa=0.265
+ sb=0.265 sd=0.28 topography=normal area=0.063 perim=1.14
MMNA0 pndA A1 VGND VNB nfet_01v8 m=1 w=0.65 l=0.15 mult=1 sa=0.265
+ sb=0.265 sd=0.28 topography=normal area=0.063 perim=1.14
MMNA1 pndA A2 VGND VNB nfet_01v8 m=1 w=0.65 l=0.15 mult=1 sa=0.265
+ sb=0.265 sd=0.28 topography=normal area=0.063 perim=1.14
MMNB0 y B1 pndA VNB nfet_01v8 m=1 w=0.65 l=0.15 mult=1 sa=0.265
+ sb=0.265 sd=0.28 topography=normal area=0.063 perim=1.14
MMNB1 y B2 pndA VNB nfet_01v8 m=1 w=0.65 l=0.15 mult=1 sa=0.265
+ sb=0.265 sd=0.28 topography=normal area=0.063 perim=1.14
MMINX X y VGND VNB nfet_01v8 m=1 w=0.65 l=0.15 mult=1 sa=0.265
+ sb=0.265 sd=0.28 topography=normal area=0.063 perim=1.14
.ENDS




.SUBCKT sky130_fd_sc_hd__dlymetal6s4s_1 A VGND VNB VPB VPWR X
MMIN1 Ab X VGND VNB nfet_01v8 m=1 w=0.42 l=0.15 mult=1 sa=0.265
+ sb=0.265 sd=0.28 topography=normal area=0.063 perim=1.14
MMIN2 net59 Ab VGND VNB nfet_01v8 m=1 w=0.65 l=0.15 mult=1 sa=0.265
+ sb=0.265 sd=0.28 topography=normal area=0.063 perim=1.14
MI6 X net47 VGND VNB nfet_01v8 m=1 w=0.65 l=0.15 mult=1 sa=0.265
+ sb=0.265 sd=0.28 topography=normal area=0.063 perim=1.14
MI15 net51 A VGND VNB nfet_01v8 m=1 w=0.42 l=0.15 mult=1 sa=0.265
+ sb=0.265 sd=0.28 topography=normal area=0.063 perim=1.14
MI9 net47 net43 VGND VNB nfet_01v8 m=1 w=0.42 l=0.15 mult=1 sa=0.265
+ sb=0.265 sd=0.28 topography=normal area=0.063 perim=1.14
MI16 net43 net51 VGND VNB nfet_01v8 m=1 w=0.65 l=0.15 mult=1 sa=0.265
+ sb=0.265 sd=0.28 topography=normal area=0.063 perim=1.14
MMIP1 Ab X VPWR VPB pfet_01v8_hvt m=1 w=0.42 l=0.15 mult=1 sa=0.265
+ sb=0.265 sd=0.28 topography=normal area=0.063 perim=1.14
MMIP2 net59 Ab VPWR VPB pfet_01v8_hvt m=1 w=1.0 l=0.15 mult=1 sa=0.265
+ sb=0.265 sd=0.28 topography=normal area=0.063 perim=1.14
MI7 X net47 VPWR VPB pfet_01v8_hvt m=1 w=1.0 l=0.15 mult=1 sa=0.265
+ sb=0.265 sd=0.28 topography=normal area=0.063 perim=1.14
MI8 net47 net43 VPWR VPB pfet_01v8_hvt m=1 w=0.42 l=0.15 mult=1
+ sa=0.265 sb=0.265 sd=0.28 topography=normal area=0.063 perim=1.14
MI18 net43 net51 VPWR VPB pfet_01v8_hvt m=1 w=1.0 l=0.15 mult=1
+ sa=0.265 sb=0.265 sd=0.28 topography=normal area=0.063 perim=1.14
MI17 net51 A VPWR VPB pfet_01v8_hvt m=1 w=0.42 l=0.15 mult=1 sa=0.265
+ sb=0.265 sd=0.28 topography=normal area=0.063 perim=1.14
.ENDS




.SUBCKT sky130_fd_sc_hd__nor4b_2 A B C D_N VGND VNB VPB VPWR Y
MMP0 VPWR A sndPA VPB pfet_01v8_hvt m=2 w=1.0 l=0.15 mult=1 sa=0.265
+ sb=0.265 sd=0.28 topography=normal area=0.063 perim=1.14
MMP1 sndPA B sndPB VPB pfet_01v8_hvt m=2 w=1.0 l=0.15 mult=1 sa=0.265
+ sb=0.265 sd=0.28 topography=normal area=0.063 perim=1.14
MMP2 sndPB C sndPC VPB pfet_01v8_hvt m=2 w=1.0 l=0.15 mult=1 sa=0.265
+ sb=0.265 sd=0.28 topography=normal area=0.063 perim=1.14
MMP3 sndPC D Y VPB pfet_01v8_hvt m=2 w=1.0 l=0.15 mult=1 sa=0.265
+ sb=0.265 sd=0.28 topography=normal area=0.063 perim=1.14
MMIP3 D D_N VPWR VPB pfet_01v8_hvt m=1 w=0.42 l=0.15 mult=1 sa=0.265
+ sb=0.265 sd=0.28 topography=normal area=0.063 perim=1.14
MMN0 Y A VGND VNB nfet_01v8 m=2 w=0.65 l=0.15 mult=1 sa=0.265 sb=0.265
+ sd=0.28 topography=normal area=0.063 perim=1.14
MMN1 Y B VGND VNB nfet_01v8 m=2 w=0.65 l=0.15 mult=1 sa=0.265 sb=0.265
+ sd=0.28 topography=normal area=0.063 perim=1.14
MMN2 Y C VGND VNB nfet_01v8 m=2 w=0.65 l=0.15 mult=1 sa=0.265 sb=0.265
+ sd=0.28 topography=normal area=0.063 perim=1.14
MMN3 Y D VGND VNB nfet_01v8 m=2 w=0.65 l=0.15 mult=1 sa=0.265 sb=0.265
+ sd=0.28 topography=normal area=0.063 perim=1.14
MMIN3 D D_N VGND VNB nfet_01v8 m=1 w=0.42 l=0.15 mult=1 sa=0.265
+ sb=0.265 sd=0.28 topography=normal area=0.063 perim=1.14
.ENDS




.SUBCKT sky130_fd_sc_hd__nor4b_4 A B C D_N VGND VNB VPB VPWR Y
MMP0 VPWR A sndPA VPB pfet_01v8_hvt m=4 w=1.0 l=0.15 mult=1 sa=0.265
+ sb=0.265 sd=0.28 topography=normal area=0.063 perim=1.14
MMP1 sndPA B sndPB VPB pfet_01v8_hvt m=4 w=1.0 l=0.15 mult=1 sa=0.265
+ sb=0.265 sd=0.28 topography=normal area=0.063 perim=1.14
MMP2 sndPB C sndPC VPB pfet_01v8_hvt m=4 w=1.0 l=0.15 mult=1 sa=0.265
+ sb=0.265 sd=0.28 topography=normal area=0.063 perim=1.14
MMP3 sndPC D Y VPB pfet_01v8_hvt m=4 w=1.0 l=0.15 mult=1 sa=0.265
+ sb=0.265 sd=0.28 topography=normal area=0.063 perim=1.14
MMIP3 D D_N VPWR VPB pfet_01v8_hvt m=1 w=1.0 l=0.15 mult=1 sa=0.265
+ sb=0.265 sd=0.28 topography=normal area=0.063 perim=1.14
MMN0 Y A VGND VNB nfet_01v8 m=4 w=0.65 l=0.15 mult=1 sa=0.265 sb=0.265
+ sd=0.28 topography=normal area=0.063 perim=1.14
MMN1 Y B VGND VNB nfet_01v8 m=4 w=0.65 l=0.15 mult=1 sa=0.265 sb=0.265
+ sd=0.28 topography=normal area=0.063 perim=1.14
MMN2 Y C VGND VNB nfet_01v8 m=4 w=0.65 l=0.15 mult=1 sa=0.265 sb=0.265
+ sd=0.28 topography=normal area=0.063 perim=1.14
MMN3 Y D VGND VNB nfet_01v8 m=4 w=0.65 l=0.15 mult=1 sa=0.265 sb=0.265
+ sd=0.28 topography=normal area=0.063 perim=1.14
MMIN3 D D_N VGND VNB nfet_01v8 m=1 w=0.65 l=0.15 mult=1 sa=0.265
+ sb=0.265 sd=0.28 topography=normal area=0.063 perim=1.14
.ENDS




.SUBCKT sky130_fd_sc_hd__nor4b_1 A B C D_N VGND VNB VPB VPWR Y
MMP0 VPWR A sndPA VPB pfet_01v8_hvt m=1 w=1.0 l=0.15 mult=1 sa=0.265
+ sb=0.265 sd=0.28 topography=normal area=0.063 perim=1.14
MMP1 sndPA B sndPB VPB pfet_01v8_hvt m=1 w=1.0 l=0.15 mult=1 sa=0.265
+ sb=0.265 sd=0.28 topography=normal area=0.063 perim=1.14
MMP2 sndPB C sndPC VPB pfet_01v8_hvt m=1 w=1.0 l=0.15 mult=1 sa=0.265
+ sb=0.265 sd=0.28 topography=normal area=0.063 perim=1.14
MMP3 sndPC D Y VPB pfet_01v8_hvt m=1 w=1.0 l=0.15 mult=1 sa=0.265
+ sb=0.265 sd=0.28 topography=normal area=0.063 perim=1.14
MMIP3 D D_N VPWR VPB pfet_01v8_hvt m=1 w=0.42 l=0.15 mult=1 sa=0.265
+ sb=0.265 sd=0.28 topography=normal area=0.063 perim=1.14
MMN0 Y A VGND VNB nfet_01v8 m=1 w=0.65 l=0.15 mult=1 sa=0.265 sb=0.265
+ sd=0.28 topography=normal area=0.063 perim=1.14
MMN1 Y B VGND VNB nfet_01v8 m=1 w=0.65 l=0.15 mult=1 sa=0.265 sb=0.265
+ sd=0.28 topography=normal area=0.063 perim=1.14
MMN2 Y C VGND VNB nfet_01v8 m=1 w=0.65 l=0.15 mult=1 sa=0.265 sb=0.265
+ sd=0.28 topography=normal area=0.063 perim=1.14
MMN3 Y D VGND VNB nfet_01v8 m=1 w=0.65 l=0.15 mult=1 sa=0.265 sb=0.265
+ sd=0.28 topography=normal area=0.063 perim=1.14
MMIN3 D D_N VGND VNB nfet_01v8 m=1 w=0.42 l=0.15 mult=1 sa=0.265
+ sb=0.265 sd=0.28 topography=normal area=0.063 perim=1.14
.ENDS




.SUBCKT sky130_fd_sc_hd__a21oi_2 A1 A2 B1 VGND VNB VPB VPWR Y
MMPA0 pndA A1 VPWR VPB pfet_01v8_hvt m=2 w=1.0 l=0.15 mult=1 sa=0.265
+ sb=0.265 sd=0.28 topography=normal area=0.063 perim=1.14
MMPA1 pndA A2 VPWR VPB pfet_01v8_hvt m=2 w=1.0 l=0.15 mult=1 sa=0.265
+ sb=0.265 sd=0.28 topography=normal area=0.063 perim=1.14
MMPB0 Y B1 pndA VPB pfet_01v8_hvt m=2 w=1.0 l=0.15 mult=1 sa=0.265
+ sb=0.265 sd=0.28 topography=normal area=0.063 perim=1.14
MMNA0 Y A1 sndA1 VNB nfet_01v8 m=2 w=0.65 l=0.15 mult=1 sa=0.265
+ sb=0.265 sd=0.28 topography=normal area=0.063 perim=1.14
MMNA1 sndA1 A2 VGND VNB nfet_01v8 m=2 w=0.65 l=0.15 mult=1 sa=0.265
+ sb=0.265 sd=0.28 topography=normal area=0.063 perim=1.14
MMNB0 Y B1 VGND VNB nfet_01v8 m=2 w=0.65 l=0.15 mult=1 sa=0.265
+ sb=0.265 sd=0.28 topography=normal area=0.063 perim=1.14
.ENDS




.SUBCKT sky130_fd_sc_hd__a21oi_4 A1 A2 B1 VGND VNB VPB VPWR Y
MMPA0 pndA A1 VPWR VPB pfet_01v8_hvt m=4 w=1.0 l=0.15 mult=1 sa=0.265
+ sb=0.265 sd=0.28 topography=normal area=0.063 perim=1.14
MMPA1 pndA A2 VPWR VPB pfet_01v8_hvt m=4 w=1.0 l=0.15 mult=1 sa=0.265
+ sb=0.265 sd=0.28 topography=normal area=0.063 perim=1.14
MMPB0 Y B1 pndA VPB pfet_01v8_hvt m=4 w=1.0 l=0.15 mult=1 sa=0.265
+ sb=0.265 sd=0.28 topography=normal area=0.063 perim=1.14
MMNA0 Y A1 sndA1 VNB nfet_01v8 m=4 w=0.65 l=0.15 mult=1 sa=0.265
+ sb=0.265 sd=0.28 topography=normal area=0.063 perim=1.14
MMNA1 sndA1 A2 VGND VNB nfet_01v8 m=4 w=0.65 l=0.15 mult=1 sa=0.265
+ sb=0.265 sd=0.28 topography=normal area=0.063 perim=1.14
MMNB0 Y B1 VGND VNB nfet_01v8 m=4 w=0.65 l=0.15 mult=1 sa=0.265
+ sb=0.265 sd=0.28 topography=normal area=0.063 perim=1.14
.ENDS




.SUBCKT sky130_fd_sc_hd__a21oi_1 A1 A2 B1 VGND VNB VPB VPWR Y
MMPA0 pndA A1 VPWR VPB pfet_01v8_hvt m=1 w=1.0 l=0.15 mult=1 sa=0.265
+ sb=0.265 sd=0.28 topography=normal area=0.063 perim=1.14
MMPA1 pndA A2 VPWR VPB pfet_01v8_hvt m=1 w=1.0 l=0.15 mult=1 sa=0.265
+ sb=0.265 sd=0.28 topography=normal area=0.063 perim=1.14
MMPB0 Y B1 pndA VPB pfet_01v8_hvt m=1 w=1.0 l=0.15 mult=1 sa=0.265
+ sb=0.265 sd=0.28 topography=normal area=0.063 perim=1.14
MMNA0 Y A1 sndA1 VNB nfet_01v8 m=1 w=0.65 l=0.15 mult=1 sa=0.265
+ sb=0.265 sd=0.28 topography=normal area=0.063 perim=1.14
MMNA1 sndA1 A2 VGND VNB nfet_01v8 m=1 w=0.65 l=0.15 mult=1 sa=0.265
+ sb=0.265 sd=0.28 topography=normal area=0.063 perim=1.14
MMNB0 Y B1 VGND VNB nfet_01v8 m=1 w=0.65 l=0.15 mult=1 sa=0.265
+ sb=0.265 sd=0.28 topography=normal area=0.063 perim=1.14
.ENDS




.SUBCKT sky130_fd_sc_hd__a21o_1 A1 A2 B1 VGND VNB VPB VPWR X
MMPA0 pndA A1 VPWR VPB pfet_01v8_hvt m=1 w=1.0 l=0.15 mult=1 sa=0.265
+ sb=0.265 sd=0.28 topography=normal area=0.063 perim=1.14
MMPA1 pndA A2 VPWR VPB pfet_01v8_hvt m=1 w=1.0 l=0.15 mult=1 sa=0.265
+ sb=0.265 sd=0.28 topography=normal area=0.063 perim=1.14
MMPB0 y B1 pndA VPB pfet_01v8_hvt m=1 w=1.0 l=0.15 mult=1 sa=0.265
+ sb=0.265 sd=0.28 topography=normal area=0.063 perim=1.14
MMIPX X y VPWR VPB pfet_01v8_hvt m=1 w=1.0 l=0.15 mult=1 sa=0.265
+ sb=0.265 sd=0.28 topography=normal area=0.063 perim=1.14
MMNA0 y A1 sndA1 VNB nfet_01v8 m=1 w=0.65 l=0.15 mult=1 sa=0.265
+ sb=0.265 sd=0.28 topography=normal area=0.063 perim=1.14
MMNA1 sndA1 A2 VGND VNB nfet_01v8 m=1 w=0.65 l=0.15 mult=1 sa=0.265
+ sb=0.265 sd=0.28 topography=normal area=0.063 perim=1.14
MMNB0 y B1 VGND VNB nfet_01v8 m=1 w=0.65 l=0.15 mult=1 sa=0.265
+ sb=0.265 sd=0.28 topography=normal area=0.063 perim=1.14
MMINX X y VGND VNB nfet_01v8 m=1 w=0.65 l=0.15 mult=1 sa=0.265
+ sb=0.265 sd=0.28 topography=normal area=0.063 perim=1.14
.ENDS




.SUBCKT sky130_fd_sc_hd__a21o_2 A1 A2 B1 VGND VNB VPB VPWR X
MMPA0 pndA A1 VPWR VPB pfet_01v8_hvt m=1 w=1.0 l=0.15 mult=1 sa=0.265
+ sb=0.265 sd=0.28 topography=normal area=0.063 perim=1.14
MMPA1 pndA A2 VPWR VPB pfet_01v8_hvt m=1 w=1.0 l=0.15 mult=1 sa=0.265
+ sb=0.265 sd=0.28 topography=normal area=0.063 perim=1.14
MMPB0 y B1 pndA VPB pfet_01v8_hvt m=1 w=1.0 l=0.15 mult=1 sa=0.265
+ sb=0.265 sd=0.28 topography=normal area=0.063 perim=1.14
MMIPX X y VPWR VPB pfet_01v8_hvt m=2 w=1.0 l=0.15 mult=1 sa=0.265
+ sb=0.265 sd=0.28 topography=normal area=0.063 perim=1.14
MMNA0 y A1 sndA1 VNB nfet_01v8 m=1 w=0.65 l=0.15 mult=1 sa=0.265
+ sb=0.265 sd=0.28 topography=normal area=0.063 perim=1.14
MMNA1 sndA1 A2 VGND VNB nfet_01v8 m=1 w=0.65 l=0.15 mult=1 sa=0.265
+ sb=0.265 sd=0.28 topography=normal area=0.063 perim=1.14
MMNB0 y B1 VGND VNB nfet_01v8 m=1 w=0.65 l=0.15 mult=1 sa=0.265
+ sb=0.265 sd=0.28 topography=normal area=0.063 perim=1.14
MMINX X y VGND VNB nfet_01v8 m=2 w=0.65 l=0.15 mult=1 sa=0.265
+ sb=0.265 sd=0.28 topography=normal area=0.063 perim=1.14
.ENDS




.SUBCKT sky130_fd_sc_hd__a21o_4 A1 A2 B1 VGND VNB VPB VPWR X
MMPA0 pndA A1 VPWR VPB pfet_01v8_hvt m=2 w=1.0 l=0.15 mult=1 sa=0.265
+ sb=0.265 sd=0.28 topography=normal area=0.063 perim=1.14
MMPA1 pndA A2 VPWR VPB pfet_01v8_hvt m=2 w=1.0 l=0.15 mult=1 sa=0.265
+ sb=0.265 sd=0.28 topography=normal area=0.063 perim=1.14
MMPB0 y B1 pndA VPB pfet_01v8_hvt m=2 w=1.0 l=0.15 mult=1 sa=0.265
+ sb=0.265 sd=0.28 topography=normal area=0.063 perim=1.14
MMIPX X y VPWR VPB pfet_01v8_hvt m=4 w=1.0 l=0.15 mult=1 sa=0.265
+ sb=0.265 sd=0.28 topography=normal area=0.063 perim=1.14
MMNA0 y A1 sndA1 VNB nfet_01v8 m=2 w=0.65 l=0.15 mult=1 sa=0.265
+ sb=0.265 sd=0.28 topography=normal area=0.063 perim=1.14
MMNA1 sndA1 A2 VGND VNB nfet_01v8 m=2 w=0.65 l=0.15 mult=1 sa=0.265
+ sb=0.265 sd=0.28 topography=normal area=0.063 perim=1.14
MMNB0 y B1 VGND VNB nfet_01v8 m=2 w=0.65 l=0.15 mult=1 sa=0.265
+ sb=0.265 sd=0.28 topography=normal area=0.063 perim=1.14
MMINX X y VGND VNB nfet_01v8 m=4 w=0.65 l=0.15 mult=1 sa=0.265
+ sb=0.265 sd=0.28 topography=normal area=0.063 perim=1.14
.ENDS




.SUBCKT sky130_fd_sc_hd__lpflow_clkinvkapwr_8 A KAPWR VGND VNB VPB VPWR Y
MMIN0 Y A VGND VNB nfet_01v8 m=8 w=0.42 l=0.15 mult=1 sa=0.265
+ sb=0.265 sd=0.28 topography=normal area=0.063 perim=1.14
MMIP0 Y A KAPWR VPB pfet_01v8_hvt m=12 w=1.0 l=0.15 mult=1 sa=0.265
+ sb=0.265 sd=0.28 topography=normal area=0.063 perim=1.14
.ENDS




.SUBCKT sky130_fd_sc_hd__lpflow_clkinvkapwr_4 A KAPWR VGND VNB VPB VPWR Y
MMIN0 Y A VGND VNB nfet_01v8 m=4 w=0.42 l=0.15 mult=1 sa=0.265
+ sb=0.265 sd=0.28 topography=normal area=0.063 perim=1.14
MMIP0 Y A KAPWR VPB pfet_01v8_hvt m=6 w=1.0 l=0.15 mult=1 sa=0.265
+ sb=0.265 sd=0.28 topography=normal area=0.063 perim=1.14
.ENDS




.SUBCKT sky130_fd_sc_hd__lpflow_clkinvkapwr_1 A KAPWR VGND VNB VPB VPWR Y
MMIN0 Y A VGND VNB nfet_01v8 m=1 w=0.42 l=0.15 mult=1 sa=0.265
+ sb=0.265 sd=0.28 topography=normal area=0.063 perim=1.14
MMIP0 Y A KAPWR VPB pfet_01v8_hvt m=2 w=0.84 l=0.15 mult=1 sa=0.265
+ sb=0.265 sd=0.28 topography=normal area=0.063 perim=1.14
.ENDS




.SUBCKT sky130_fd_sc_hd__lpflow_clkinvkapwr_16 A KAPWR VGND VNB VPB VPWR Y
MMIN0 Y A VGND VNB nfet_01v8 m=16 w=0.42 l=0.15 mult=1 sa=0.265
+ sb=0.265 sd=0.28 topography=normal area=0.063 perim=1.14
MMIP0 Y A KAPWR VPB pfet_01v8_hvt m=24 w=1.0 l=0.15 mult=1 sa=0.265
+ sb=0.265 sd=0.28 topography=normal area=0.063 perim=1.14
.ENDS




.SUBCKT sky130_fd_sc_hd__lpflow_clkinvkapwr_2 A KAPWR VGND VNB VPB VPWR Y
MMIN0 Y A VGND VNB nfet_01v8 m=2 w=0.42 l=0.15 mult=1 sa=0.265
+ sb=0.265 sd=0.28 topography=normal area=0.063 perim=1.14
MMIP0 Y A KAPWR VPB pfet_01v8_hvt m=3 w=1.0 l=0.15 mult=1 sa=0.265
+ sb=0.265 sd=0.28 topography=normal area=0.063 perim=1.14
.ENDS




.SUBCKT sky130_fd_sc_hd__probe_p_8 A VGND VNB VPB VPWR X
MMIP1 Ab A VPWR VPB pfet_01v8_hvt m=3 w=1.0 l=0.15 mult=1 sa=0.265
+ sb=0.265 sd=0.28 topography=normal area=0.063 perim=1.14
MMIP2 net29 Ab VPWR VPB pfet_01v8_hvt m=8 w=1.0 l=0.15 mult=1 sa=0.265
+ sb=0.265 sd=0.28 topography=normal area=0.063 perim=1.14
MMIN1 Ab A VGND VNB nfet_01v8 m=3 w=0.65 l=0.15 mult=1 sa=0.265
+ sb=0.265 sd=0.28 topography=normal area=0.063 perim=1.14
MMIN2 net29 Ab VGND VNB nfet_01v8 m=8 w=0.65 l=0.15 mult=1 sa=0.265
+ sb=0.265 sd=0.28 topography=normal area=0.063 perim=1.14
rI112 net29 X short
.ENDS




.SUBCKT sky130_fd_sc_hd__a211oi_4 A1 A2 B1 C1 VGND VNB VPB VPWR Y
MMPA0 pndA A1 VPWR VPB pfet_01v8_hvt m=4 w=1.0 l=0.15 mult=1 sa=0.265
+ sb=0.265 sd=0.28 topography=normal area=0.063 perim=1.14
MMPA1 pndA A2 VPWR VPB pfet_01v8_hvt m=4 w=1.0 l=0.15 mult=1 sa=0.265
+ sb=0.265 sd=0.28 topography=normal area=0.063 perim=1.14
MMPB0 pndB B1 pndA VPB pfet_01v8_hvt m=4 w=1.0 l=0.15 mult=1 sa=0.265
+ sb=0.265 sd=0.28 topography=normal area=0.063 perim=1.14
MMPC0 Y C1 pndB VPB pfet_01v8_hvt m=4 w=1.0 l=0.15 mult=1 sa=0.265
+ sb=0.265 sd=0.28 topography=normal area=0.063 perim=1.14
MMNA0 Y A1 sndA1 VNB nfet_01v8 m=4 w=0.65 l=0.15 mult=1 sa=0.265
+ sb=0.265 sd=0.28 topography=normal area=0.063 perim=1.14
MMNA1 sndA1 A2 VGND VNB nfet_01v8 m=4 w=0.65 l=0.15 mult=1 sa=0.265
+ sb=0.265 sd=0.28 topography=normal area=0.063 perim=1.14
MMNB0 Y B1 VGND VNB nfet_01v8 m=4 w=0.65 l=0.15 mult=1 sa=0.265
+ sb=0.265 sd=0.28 topography=normal area=0.063 perim=1.14
MMNC0 Y C1 VGND VNB nfet_01v8 m=4 w=0.65 l=0.15 mult=1 sa=0.265
+ sb=0.265 sd=0.28 topography=normal area=0.063 perim=1.14
.ENDS




.SUBCKT sky130_fd_sc_hd__a211oi_2 A1 A2 B1 C1 VGND VNB VPB VPWR Y
MMPA0 pndA A1 VPWR VPB pfet_01v8_hvt m=2 w=1.0 l=0.15 mult=1 sa=0.265
+ sb=0.265 sd=0.28 topography=normal area=0.063 perim=1.14
MMPA1 pndA A2 VPWR VPB pfet_01v8_hvt m=2 w=1.0 l=0.15 mult=1 sa=0.265
+ sb=0.265 sd=0.28 topography=normal area=0.063 perim=1.14
MMPB0 pndB B1 pndA VPB pfet_01v8_hvt m=2 w=1.0 l=0.15 mult=1 sa=0.265
+ sb=0.265 sd=0.28 topography=normal area=0.063 perim=1.14
MMPC0 Y C1 pndB VPB pfet_01v8_hvt m=2 w=1.0 l=0.15 mult=1 sa=0.265
+ sb=0.265 sd=0.28 topography=normal area=0.063 perim=1.14
MMNA0 Y A1 sndA1 VNB nfet_01v8 m=2 w=0.65 l=0.15 mult=1 sa=0.265
+ sb=0.265 sd=0.28 topography=normal area=0.063 perim=1.14
MMNA1 sndA1 A2 VGND VNB nfet_01v8 m=2 w=0.65 l=0.15 mult=1 sa=0.265
+ sb=0.265 sd=0.28 topography=normal area=0.063 perim=1.14
MMNB0 Y B1 VGND VNB nfet_01v8 m=2 w=0.65 l=0.15 mult=1 sa=0.265
+ sb=0.265 sd=0.28 topography=normal area=0.063 perim=1.14
MMNC0 Y C1 VGND VNB nfet_01v8 m=2 w=0.65 l=0.15 mult=1 sa=0.265
+ sb=0.265 sd=0.28 topography=normal area=0.063 perim=1.14
.ENDS




.SUBCKT sky130_fd_sc_hd__a211oi_1 A1 A2 B1 C1 VGND VNB VPB VPWR Y
MMPA0 pndA A1 VPWR VPB pfet_01v8_hvt m=1 w=1.0 l=0.15 mult=1 sa=0.265
+ sb=0.265 sd=0.28 topography=normal area=0.063 perim=1.14
MMPA1 pndA A2 VPWR VPB pfet_01v8_hvt m=1 w=1.0 l=0.15 mult=1 sa=0.265
+ sb=0.265 sd=0.28 topography=normal area=0.063 perim=1.14
MMPB0 pndB B1 pndA VPB pfet_01v8_hvt m=1 w=1.0 l=0.15 mult=1 sa=0.265
+ sb=0.265 sd=0.28 topography=normal area=0.063 perim=1.14
MMPC0 Y C1 pndB VPB pfet_01v8_hvt m=1 w=1.0 l=0.15 mult=1 sa=0.265
+ sb=0.265 sd=0.28 topography=normal area=0.063 perim=1.14
MMNA0 Y A1 sndA1 VNB nfet_01v8 m=1 w=0.65 l=0.15 mult=1 sa=0.265
+ sb=0.265 sd=0.28 topography=normal area=0.063 perim=1.14
MMNA1 sndA1 A2 VGND VNB nfet_01v8 m=1 w=0.65 l=0.15 mult=1 sa=0.265
+ sb=0.265 sd=0.28 topography=normal area=0.063 perim=1.14
MMNB0 Y B1 VGND VNB nfet_01v8 m=1 w=0.65 l=0.15 mult=1 sa=0.265
+ sb=0.265 sd=0.28 topography=normal area=0.063 perim=1.14
MMNC0 Y C1 VGND VNB nfet_01v8 m=1 w=0.65 l=0.15 mult=1 sa=0.265
+ sb=0.265 sd=0.28 topography=normal area=0.063 perim=1.14
.ENDS




.SUBCKT sky130_fd_sc_hd__sdfrtp_2 CLK D RESET_B SCD SCE VGND VNB VPB VPWR Q
MI642 clkneg CLK VGND VNB nfet_01v8 m=1 w=0.65 l=0.15 mult=1 sa=0.265
+ sb=0.265 sd=0.28 topography=normal area=0.063 perim=1.14
MI636 clkpos clkneg VGND VNB nfet_01v8 m=1 w=0.65 l=0.15 mult=1
+ sa=0.265 sb=0.265 sd=0.28 topography=normal area=0.063 perim=1.14
MI42 db clkneg M0 VNB nfet_01v8 m=1 w=0.36 l=0.15 mult=1 sa=0.265
+ sb=0.265 sd=0.28 topography=normal area=0.063 perim=1.14
MI656 net84 S0 net114 VNB nfet_01v8 m=1 w=0.42 l=0.15 mult=1 sa=0.265
+ sb=0.265 sd=0.28 topography=normal area=0.063 perim=1.14
MI657 net114 RESET_B VGND VNB nfet_01v8 m=1 w=0.42 l=0.15 mult=1